LTspice 24.1.8 for Windows
Circuit: D:\WORKSPACE\Docs\LTspice\1kWInterleavedBuckConverter.net
Start Time: Tue May 13 23:35:06 2025
solver = Normal
Maximum thread count: 16
tnom = 27
temp = 27
method = modified trap
D:\WORKSPACE\Docs\LTspice\1kWInterleavedBuckConverter.net(3): WARNING: Specified period is not longer than the sum of Trise, Tfall, and Ton. Increasing period to 4.001e-06.

V1 tri 0 PULSE(0 1 0 {1/(2*Fs)} {1/(2*Fs)} 1n {1/(Fs)})
^^^^^^^^^^^^^^^^^^^^^^^^^^^^^^^^^^^^^^^^^^^^^^^^^^^^^^^
D:\WORKSPACE\Docs\LTspice\1kWInterleavedBuckConverter.net(33): WARNING: Specified period is not longer than the sum of Trise, Tfall, and Ton. Increasing period to 4.001e-06.

V4 N011 0 PULSE(0 1 {Ts/2} {1/(2*Fs)} {1/(2*Fs)} 1n {1/(Fs)})
^^^^^^^^^^^^^^^^^^^^^^^^^^^^^^^^^^^^^^^^^^^^^^^^^^^^^^^^^^^^^
Direct Newton iteration for .op point succeeded.
Warning: Simulation tolerance relaxed to achieve convergence from 1.0469970519394499e-14 to 1.0470970519394499e-14 seconds.
Warning: Simulation tolerance relaxed to achieve convergence from 1.0471970519394499e-14 to 1.0472970519394499e-14 seconds.
Warning: Simulation tolerance relaxed to achieve convergence from 1.0472970519394499e-14 to 1.0473970519394499e-14 seconds.
Warning: Simulation tolerance relaxed to achieve convergence from 1.0476970519394498e-14 to 1.0477970519394498e-14 seconds.
Warning: Simulation tolerance relaxed to achieve convergence from 1.0482970519394497e-14 to 1.0483970519394497e-14 seconds.
Warning: Simulation tolerance relaxed to achieve convergence from 1.0483970519394497e-14 to 1.0484970519394497e-14 seconds.
Warning: Simulation tolerance relaxed to achieve convergence from 1.0484970519394497e-14 to 1.0485970519394497e-14 seconds.
Warning: Simulation tolerance relaxed to achieve convergence from 1.0486970519394496e-14 to 1.0487970519394496e-14 seconds.
Warning: Simulation tolerance relaxed to achieve convergence from 1.0498970519394494e-14 to 1.0499970519394494e-14 seconds.
Warning: Simulation tolerance relaxed to achieve convergence from 1.0499970519394494e-14 to 1.0500970519394494e-14 seconds.
Warning: Simulation tolerance relaxed to achieve convergence from 1.0500970519394494e-14 to 1.0501970519394494e-14 seconds.
Warning: Simulation tolerance relaxed to achieve convergence from 1.0503970519394493e-14 to 1.0504970519394493e-14 seconds.
Warning: Simulation tolerance relaxed to achieve convergence from 1.0509970519394492e-14 to 1.0510970519394492e-14 seconds.
Warning: Simulation tolerance relaxed to achieve convergence from 1.0510970519394492e-14 to 1.0511970519394492e-14 seconds.
Warning: Simulation tolerance relaxed to achieve convergence from 1.0511970519394492e-14 to 1.0512970519394492e-14 seconds.
Warning: Simulation tolerance relaxed to achieve convergence from 1.0512970519394492e-14 to 1.0513970519394492e-14 seconds.
Warning: Simulation tolerance relaxed to achieve convergence from 1.0514970519394491e-14 to 1.0515970519394491e-14 seconds.
Warning: Simulation tolerance relaxed to achieve convergence from 1.0516970519394491e-14 to 1.0517970519394491e-14 seconds.
Warning: Simulation tolerance relaxed to achieve convergence from 1.0520970519394490e-14 to 1.0521970519394490e-14 seconds.
Warning: Simulation tolerance relaxed to achieve convergence from 1.0551970519394489e-14 to 1.0552970519394489e-14 seconds.
Warning: Simulation tolerance relaxed to achieve convergence from 1.0552970519394489e-14 to 1.0553970519394489e-14 seconds.
Warning: Simulation tolerance relaxed to achieve convergence from 1.0553970519394489e-14 to 1.0554970519394489e-14 seconds.
Warning: Simulation tolerance relaxed to achieve convergence from 1.0554970519394489e-14 to 1.0555970519394489e-14 seconds.
Warning: Simulation tolerance relaxed to achieve convergence from 1.0555970519394489e-14 to 1.0556970519394488e-14 seconds.
Warning: Simulation tolerance relaxed to achieve convergence from 1.0557970519394488e-14 to 1.0558970519394488e-14 seconds.
Warning: Simulation tolerance relaxed to achieve convergence from 1.0558970519394488e-14 to 1.0559970519394488e-14 seconds.
Warning: Simulation tolerance relaxed to achieve convergence from 1.0562970519394487e-14 to 1.0563970519394487e-14 seconds.
Warning: Simulation tolerance relaxed to achieve convergence from 1.0563970519394487e-14 to 1.0564970519394487e-14 seconds.
Warning: Simulation tolerance relaxed to achieve convergence from 1.0564970519394487e-14 to 1.0565970519394487e-14 seconds.
Warning: Simulation tolerance relaxed to achieve convergence from 1.0566970519394487e-14 to 1.0567970519394486e-14 seconds.
Warning: Simulation tolerance relaxed to achieve convergence from 1.0567970519394486e-14 to 1.0568970519394486e-14 seconds.
Warning: Simulation tolerance relaxed to achieve convergence from 1.0568970519394486e-14 to 1.0569970519394486e-14 seconds.
Warning: Simulation tolerance relaxed to achieve convergence from 1.0570970519394486e-14 to 1.0571970519394486e-14 seconds.
Warning: Simulation tolerance relaxed to achieve convergence from 1.0572970519394486e-14 to 1.0573970519394485e-14 seconds.
Warning: Simulation tolerance relaxed to achieve convergence from 1.0579970519394484e-14 to 1.0580970519394484e-14 seconds.
Warning: Simulation tolerance relaxed to achieve convergence from 1.0580970519394484e-14 to 1.0581970519394484e-14 seconds.
Warning: Simulation tolerance relaxed to achieve convergence from 1.0582970519394484e-14 to 1.0583970519394484e-14 seconds.
Warning: Simulation tolerance relaxed to achieve convergence from 1.0583970519394484e-14 to 1.0584970519394483e-14 seconds.
Warning: Simulation tolerance relaxed to achieve convergence from 1.0584970519394483e-14 to 1.0585970519394483e-14 seconds.
Warning: Simulation tolerance relaxed to achieve convergence from 1.0585970519394483e-14 to 1.0586970519394483e-14 seconds.
Warning: Simulation tolerance relaxed to achieve convergence from 1.0586970519394483e-14 to 1.0587970519394483e-14 seconds.
Warning: Simulation tolerance relaxed to achieve convergence from 1.0587970519394483e-14 to 1.0588970519394483e-14 seconds.
Warning: Simulation tolerance relaxed to achieve convergence from 1.0588970519394483e-14 to 1.0589970519394482e-14 seconds.
Warning: Simulation tolerance relaxed to achieve convergence from 1.0595970519394481e-14 to 1.0596970519394481e-14 seconds.
Warning: Simulation tolerance relaxed to achieve convergence from 1.0596970519394481e-14 to 1.0597970519394481e-14 seconds.
Warning: Simulation tolerance relaxed to achieve convergence from 1.0597970519394481e-14 to 1.0598970519394481e-14 seconds.
Warning: Simulation tolerance relaxed to achieve convergence from 1.0598970519394481e-14 to 1.0599970519394481e-14 seconds.
Warning: Simulation tolerance relaxed to achieve convergence from 1.0602970519394480e-14 to 1.0603970519394480e-14 seconds.
Warning: Simulation tolerance relaxed to achieve convergence from 1.0609970519394479e-14 to 1.0610970519394479e-14 seconds.
Warning: Simulation tolerance relaxed to achieve convergence from 1.0612970519394478e-14 to 1.0613970519394478e-14 seconds.
Warning: Simulation tolerance relaxed to achieve convergence from 1.0616970519394478e-14 to 1.0617970519394477e-14 seconds.
Warning: Simulation tolerance relaxed to achieve convergence from 1.0617970519394477e-14 to 1.0618970519394477e-14 seconds.
Warning: Simulation tolerance relaxed to achieve convergence from 1.0619970519394477e-14 to 1.0620970519394477e-14 seconds.
Warning: Simulation tolerance relaxed to achieve convergence from 1.0622970519394477e-14 to 1.0623970519394476e-14 seconds.
Warning: Simulation tolerance relaxed to achieve convergence from 1.0623970519394476e-14 to 1.0624970519394476e-14 seconds.
Warning: Simulation tolerance relaxed to achieve convergence from 1.0638970519394475e-14 to 1.0639970519394475e-14 seconds.
Warning: Simulation tolerance relaxed to achieve convergence from 1.0643970519394474e-14 to 1.0644970519394474e-14 seconds.
Warning: Simulation tolerance relaxed to achieve convergence from 1.0649970519394473e-14 to 1.0650970519394473e-14 seconds.
Warning: Simulation tolerance relaxed to achieve convergence from 1.0652970519394473e-14 to 1.0653970519394472e-14 seconds.
Warning: Simulation tolerance relaxed to achieve convergence from 1.0653970519394472e-14 to 1.0654970519394472e-14 seconds.
Warning: Simulation tolerance relaxed to achieve convergence from 1.0654970519394472e-14 to 1.0655970519394472e-14 seconds.
Warning: Simulation tolerance relaxed to achieve convergence from 1.0657970519394472e-14 to 1.0658970519394472e-14 seconds.
Warning: Simulation tolerance relaxed to achieve convergence from 1.0660970519394471e-14 to 1.0661970519394471e-14 seconds.
Warning: Simulation tolerance relaxed to achieve convergence from 1.0661970519394471e-14 to 1.0662970519394471e-14 seconds.
Warning: Simulation tolerance relaxed to achieve convergence from 1.0662970519394471e-14 to 1.0663970519394471e-14 seconds.
Warning: Simulation tolerance relaxed to achieve convergence from 1.0665970519394470e-14 to 1.0666970519394470e-14 seconds.
Warning: Simulation tolerance relaxed to achieve convergence from 1.0669970519394470e-14 to 1.0670970519394469e-14 seconds.
Warning: Simulation tolerance relaxed to achieve convergence from 1.0674970519394469e-14 to 1.0675970519394469e-14 seconds.
Warning: Simulation tolerance relaxed to achieve convergence from 1.0675970519394469e-14 to 1.0676970519394468e-14 seconds.
Warning: Simulation tolerance relaxed to achieve convergence from 1.0677970519394468e-14 to 1.0678970519394468e-14 seconds.
Warning: Simulation tolerance relaxed to achieve convergence from 1.0678970519394468e-14 to 1.0679970519394468e-14 seconds.
Warning: Simulation tolerance relaxed to achieve convergence from 1.0682970519394467e-14 to 1.0683970519394467e-14 seconds.
Warning: Simulation tolerance relaxed to achieve convergence from 1.0703970519394463e-14 to 1.0704970519394463e-14 seconds.
Warning: Simulation tolerance relaxed to achieve convergence from 1.0704970519394463e-14 to 1.0705970519394463e-14 seconds.
Warning: Simulation tolerance relaxed to achieve convergence from 1.0705970519394463e-14 to 1.0706970519394463e-14 seconds.
Warning: Simulation tolerance relaxed to achieve convergence from 1.0706970519394463e-14 to 1.0707970519394463e-14 seconds.
Warning: Simulation tolerance relaxed to achieve convergence from 1.0708970519394463e-14 to 1.0709970519394462e-14 seconds.
Warning: Simulation tolerance relaxed to achieve convergence from 1.0709970519394462e-14 to 1.0710970519394462e-14 seconds.
Warning: Simulation tolerance relaxed to achieve convergence from 1.0711970519394462e-14 to 1.0712970519394462e-14 seconds.
Warning: Simulation tolerance relaxed to achieve convergence from 1.0719970519394461e-14 to 1.0720970519394460e-14 seconds.
Warning: Simulation tolerance relaxed to achieve convergence from 1.0720970519394460e-14 to 1.0721970519394460e-14 seconds.
Warning: Simulation tolerance relaxed to achieve convergence from 1.0721970519394460e-14 to 1.0722970519394460e-14 seconds.
Warning: Simulation tolerance relaxed to achieve convergence from 1.0722970519394460e-14 to 1.0723970519394460e-14 seconds.
Warning: Simulation tolerance relaxed to achieve convergence from 1.0723970519394460e-14 to 1.0724970519394460e-14 seconds.
Warning: Simulation tolerance relaxed to achieve convergence from 1.0724970519394460e-14 to 1.0725970519394459e-14 seconds.
Warning: Simulation tolerance relaxed to achieve convergence from 1.0725970519394459e-14 to 1.0726970519394459e-14 seconds.
Warning: Simulation tolerance relaxed to achieve convergence from 1.0732970519394458e-14 to 1.0733970519394458e-14 seconds.
Warning: Simulation tolerance relaxed to achieve convergence from 1.0733970519394458e-14 to 1.0734970519394458e-14 seconds.
Warning: Simulation tolerance relaxed to achieve convergence from 1.0734970519394458e-14 to 1.0735970519394458e-14 seconds.
Warning: Simulation tolerance relaxed to achieve convergence from 1.0740970519394457e-14 to 1.0741970519394457e-14 seconds.
Warning: Simulation tolerance relaxed to achieve convergence from 1.0743970519394456e-14 to 1.0744970519394456e-14 seconds.
Warning: Simulation tolerance relaxed to achieve convergence from 1.0756970519394454e-14 to 1.0757970519394454e-14 seconds.
Warning: Simulation tolerance relaxed to achieve convergence from 1.0761970519394453e-14 to 1.0762970519394453e-14 seconds.
Warning: Simulation tolerance relaxed to achieve convergence from 1.0770970519394451e-14 to 1.0771970519394451e-14 seconds.
Warning: Simulation tolerance relaxed to achieve convergence from 1.0773970519394451e-14 to 1.0774970519394451e-14 seconds.
Warning: Simulation tolerance relaxed to achieve convergence from 1.0777970519394450e-14 to 1.0778970519394450e-14 seconds.
Warning: Simulation tolerance relaxed to achieve convergence from 1.0780970519394450e-14 to 1.0781970519394449e-14 seconds.
Warning: Simulation tolerance relaxed to achieve convergence from 1.0783970519394449e-14 to 1.0784970519394449e-14 seconds.
Warning: Simulation tolerance relaxed to achieve convergence from 1.0784970519394449e-14 to 1.0785970519394449e-14 seconds.
Warning: Simulation tolerance relaxed to achieve convergence from 1.0785970519394449e-14 to 1.0786970519394448e-14 seconds.
Warning: Simulation tolerance relaxed to achieve convergence from 1.0786970519394448e-14 to 1.0787970519394448e-14 seconds.
Warning: Simulation tolerance relaxed to achieve convergence from 1.0800970519394446e-14 to 1.0801970519394446e-14 seconds.
Warning: Simulation tolerance relaxed to achieve convergence from 1.0801970519394446e-14 to 1.0802970519394446e-14 seconds.
Warning: Simulation tolerance relaxed to achieve convergence from 1.0802970519394446e-14 to 1.0803970519394445e-14 seconds.
Warning: Simulation tolerance relaxed to achieve convergence from 1.0803970519394445e-14 to 1.0804970519394445e-14 seconds.
Warning: Simulation tolerance relaxed to achieve convergence from 1.0804970519394445e-14 to 1.0805970519394445e-14 seconds.
Warning: Simulation tolerance relaxed to achieve convergence from 1.0805970519394445e-14 to 1.0806970519394445e-14 seconds.
Warning: Simulation tolerance relaxed to achieve convergence from 1.0807970519394445e-14 to 1.0808970519394444e-14 seconds.
Warning: Simulation tolerance relaxed to achieve convergence from 1.0850970519394443e-14 to 1.0851970519394443e-14 seconds.
Warning: Simulation tolerance relaxed to achieve convergence from 1.0851970519394443e-14 to 1.0852970519394443e-14 seconds.
Warning: Simulation tolerance relaxed to achieve convergence from 1.0854970519394442e-14 to 1.0855970519394442e-14 seconds.
Warning: Simulation tolerance relaxed to achieve convergence from 1.0855970519394442e-14 to 1.0856970519394442e-14 seconds.
Warning: Simulation tolerance relaxed to achieve convergence from 1.0878970519394440e-14 to 1.0879970519394439e-14 seconds.
Warning: Simulation tolerance relaxed to achieve convergence from 1.0896970519394438e-14 to 1.0897970519394438e-14 seconds.
Warning: Simulation tolerance relaxed to achieve convergence from 1.0897970519394438e-14 to 1.0898970519394438e-14 seconds.
Warning: Simulation tolerance relaxed to achieve convergence from 1.0898970519394438e-14 to 1.0899970519394437e-14 seconds.
Warning: Simulation tolerance relaxed to achieve convergence from 1.0903970519394437e-14 to 1.0904970519394437e-14 seconds.
Warning: Simulation tolerance relaxed to achieve convergence from 1.0904970519394437e-14 to 1.0905970519394436e-14 seconds.
Warning: Simulation tolerance relaxed to achieve convergence from 1.0905970519394436e-14 to 1.0906970519394436e-14 seconds.
Warning: Simulation tolerance relaxed to achieve convergence from 1.0906970519394436e-14 to 1.0907970519394436e-14 seconds.
Warning: Simulation tolerance relaxed to achieve convergence from 1.0912970519394435e-14 to 1.0913970519394435e-14 seconds.
Warning: Simulation tolerance relaxed to achieve convergence from 1.0952970519394433e-14 to 1.0953970519394432e-14 seconds.
Warning: Simulation tolerance relaxed to achieve convergence from 1.0956970519394432e-14 to 1.0957970519394432e-14 seconds.
Warning: Simulation tolerance relaxed to achieve convergence from 1.0959970519394431e-14 to 1.0960970519394431e-14 seconds.
Warning: Simulation tolerance relaxed to achieve convergence from 1.0967970519394430e-14 to 1.0968970519394430e-14 seconds.
Warning: Simulation tolerance relaxed to achieve convergence from 1.0968970519394430e-14 to 1.0969970519394430e-14 seconds.
Warning: Simulation tolerance relaxed to achieve convergence from 1.0969970519394430e-14 to 1.0970970519394429e-14 seconds.
Warning: Simulation tolerance relaxed to achieve convergence from 1.0970970519394429e-14 to 1.0971970519394429e-14 seconds.
Warning: Simulation tolerance relaxed to achieve convergence from 1.0971970519394429e-14 to 1.0972970519394429e-14 seconds.
Warning: Simulation tolerance relaxed to achieve convergence from 1.0972970519394429e-14 to 1.0973970519394429e-14 seconds.
Warning: Simulation tolerance relaxed to achieve convergence from 1.0973970519394429e-14 to 1.0974970519394429e-14 seconds.
Warning: Simulation tolerance relaxed to achieve convergence from 1.0978970519394428e-14 to 1.0979970519394428e-14 seconds.
Warning: Simulation tolerance relaxed to achieve convergence from 1.0986970519394426e-14 to 1.0987970519394426e-14 seconds.
Warning: Simulation tolerance relaxed to achieve convergence from 1.0989970519394426e-14 to 1.0990970519394426e-14 seconds.
Warning: Simulation tolerance relaxed to achieve convergence from 1.0990970519394426e-14 to 1.0991970519394426e-14 seconds.
Warning: Simulation tolerance relaxed to achieve convergence from 1.0994970519394425e-14 to 1.0995970519394425e-14 seconds.
Warning: Simulation tolerance relaxed to achieve convergence from 1.1004970519394423e-14 to 1.1005970519394423e-14 seconds.
Warning: Simulation tolerance relaxed to achieve convergence from 1.1005970519394423e-14 to 1.1006970519394423e-14 seconds.
Warning: Simulation tolerance relaxed to achieve convergence from 1.1006970519394423e-14 to 1.1007970519394423e-14 seconds.
Warning: Simulation tolerance relaxed to achieve convergence from 1.1007970519394423e-14 to 1.1008970519394422e-14 seconds.
Warning: Simulation tolerance relaxed to achieve convergence from 1.1024970519394421e-14 to 1.1025970519394421e-14 seconds.
Warning: Simulation tolerance relaxed to achieve convergence from 1.1056970519394420e-14 to 1.1057970519394420e-14 seconds.
Warning: Simulation tolerance relaxed to achieve convergence from 1.1065970519394418e-14 to 1.1066970519394418e-14 seconds.
Warning: Simulation tolerance relaxed to achieve convergence from 1.1066970519394418e-14 to 1.1067970519394418e-14 seconds.
Warning: Simulation tolerance relaxed to achieve convergence from 1.1069970519394418e-14 to 1.1070970519394418e-14 seconds.
Warning: Simulation tolerance relaxed to achieve convergence from 1.1070970519394418e-14 to 1.1071970519394417e-14 seconds.
Warning: Simulation tolerance relaxed to achieve convergence from 1.1073970519394417e-14 to 1.1074970519394417e-14 seconds.
Warning: Simulation tolerance relaxed to achieve convergence from 1.1076970519394416e-14 to 1.1077970519394416e-14 seconds.
Warning: Simulation tolerance relaxed to achieve convergence from 1.1077970519394416e-14 to 1.1078970519394416e-14 seconds.
Warning: Simulation tolerance relaxed to achieve convergence from 1.1078970519394416e-14 to 1.1079970519394416e-14 seconds.
Warning: Simulation tolerance relaxed to achieve convergence from 1.1079970519394416e-14 to 1.1080970519394416e-14 seconds.
Warning: Simulation tolerance relaxed to achieve convergence from 1.1085970519394415e-14 to 1.1086970519394415e-14 seconds.
Warning: Simulation tolerance relaxed to achieve convergence from 1.1087970519394414e-14 to 1.1088970519394414e-14 seconds.
Warning: Simulation tolerance relaxed to achieve convergence from 1.1090970519394414e-14 to 1.1091970519394414e-14 seconds.
Warning: Simulation tolerance relaxed to achieve convergence from 1.1091970519394414e-14 to 1.1092970519394414e-14 seconds.
Warning: Simulation tolerance relaxed to achieve convergence from 1.1123970519394413e-14 to 1.1124970519394412e-14 seconds.
Warning: Simulation tolerance relaxed to achieve convergence from 1.1126970519394412e-14 to 1.1127970519394412e-14 seconds.
Warning: Simulation tolerance relaxed to achieve convergence from 1.1127970519394412e-14 to 1.1128970519394412e-14 seconds.
Warning: Simulation tolerance relaxed to achieve convergence from 1.1137970519394410e-14 to 1.1138970519394410e-14 seconds.
Warning: Simulation tolerance relaxed to achieve convergence from 1.1147970519394408e-14 to 1.1148970519394408e-14 seconds.
Warning: Simulation tolerance relaxed to achieve convergence from 1.1150970519394408e-14 to 1.1151970519394408e-14 seconds.
Warning: Simulation tolerance relaxed to achieve convergence from 1.1153970519394407e-14 to 1.1154970519394407e-14 seconds.
Warning: Simulation tolerance relaxed to achieve convergence from 1.1154970519394407e-14 to 1.1155970519394407e-14 seconds.
Warning: Simulation tolerance relaxed to achieve convergence from 1.1155970519394407e-14 to 1.1156970519394407e-14 seconds.
Warning: Simulation tolerance relaxed to achieve convergence from 1.1164970519394405e-14 to 1.1165970519394405e-14 seconds.
Warning: Simulation tolerance relaxed to achieve convergence from 1.1165970519394405e-14 to 1.1166970519394405e-14 seconds.
Warning: Simulation tolerance relaxed to achieve convergence from 1.1169970519394404e-14 to 1.1170970519394404e-14 seconds.
Warning: Simulation tolerance relaxed to achieve convergence from 1.1171970519394404e-14 to 1.1172970519394404e-14 seconds.
Warning: Simulation tolerance relaxed to achieve convergence from 1.1172970519394404e-14 to 1.1173970519394404e-14 seconds.
Warning: Simulation tolerance relaxed to achieve convergence from 1.1176970519394403e-14 to 1.1177970519394403e-14 seconds.
Warning: Simulation tolerance relaxed to achieve convergence from 1.1178970519394403e-14 to 1.1179970519394403e-14 seconds.
Warning: Simulation tolerance relaxed to achieve convergence from 1.1182970519394402e-14 to 1.1183970519394402e-14 seconds.
Warning: Simulation tolerance relaxed to achieve convergence from 1.1184970519394402e-14 to 1.1185970519394401e-14 seconds.
Warning: Simulation tolerance relaxed to achieve convergence from 1.1191970519394400e-14 to 1.1192970519394400e-14 seconds.
Warning: Simulation tolerance relaxed to achieve convergence from 1.1192970519394400e-14 to 1.1193970519394400e-14 seconds.
Warning: Simulation tolerance relaxed to achieve convergence from 1.1193970519394400e-14 to 1.1194970519394400e-14 seconds.
Warning: Simulation tolerance relaxed to achieve convergence from 1.1194970519394400e-14 to 1.1195970519394400e-14 seconds.
Warning: Simulation tolerance relaxed to achieve convergence from 1.1195970519394400e-14 to 1.1196970519394399e-14 seconds.
Warning: Simulation tolerance relaxed to achieve convergence from 1.1196970519394399e-14 to 1.1197970519394399e-14 seconds.
Warning: Simulation tolerance relaxed to achieve convergence from 1.1197970519394399e-14 to 1.1198970519394399e-14 seconds.
Warning: Simulation tolerance relaxed to achieve convergence from 1.1207970519394397e-14 to 1.1208970519394397e-14 seconds.
Warning: Simulation tolerance relaxed to achieve convergence from 1.1217970519394396e-14 to 1.1218970519394395e-14 seconds.
Warning: Simulation tolerance relaxed to achieve convergence from 1.1221970519394395e-14 to 1.1222970519394395e-14 seconds.
Warning: Simulation tolerance relaxed to achieve convergence from 1.1222970519394395e-14 to 1.1223970519394395e-14 seconds.
Warning: Simulation tolerance relaxed to achieve convergence from 1.1223970519394395e-14 to 1.1224970519394394e-14 seconds.
Warning: Simulation tolerance relaxed to achieve convergence from 1.1226970519394394e-14 to 1.1227970519394394e-14 seconds.
Warning: Simulation tolerance relaxed to achieve convergence from 1.1229970519394393e-14 to 1.1230970519394393e-14 seconds.
Warning: Simulation tolerance relaxed to achieve convergence from 1.1232970519394393e-14 to 1.1233970519394393e-14 seconds.
Warning: Simulation tolerance relaxed to achieve convergence from 1.1235970519394392e-14 to 1.1236970519394392e-14 seconds.
Warning: Simulation tolerance relaxed to achieve convergence from 1.1236970519394392e-14 to 1.1237970519394392e-14 seconds.
Warning: Simulation tolerance relaxed to achieve convergence from 1.1239970519394392e-14 to 1.1240970519394392e-14 seconds.
Warning: Simulation tolerance relaxed to achieve convergence from 1.1240970519394392e-14 to 1.1241970519394391e-14 seconds.
Warning: Simulation tolerance relaxed to achieve convergence from 1.1241970519394391e-14 to 1.1242970519394391e-14 seconds.
Warning: Simulation tolerance relaxed to achieve convergence from 1.1244970519394391e-14 to 1.1245970519394391e-14 seconds.
Warning: Simulation tolerance relaxed to achieve convergence from 1.1245970519394391e-14 to 1.1246970519394390e-14 seconds.
Warning: Simulation tolerance relaxed to achieve convergence from 1.1246970519394390e-14 to 1.1247970519394390e-14 seconds.
Warning: Simulation tolerance relaxed to achieve convergence from 1.1254970519394389e-14 to 1.1255970519394389e-14 seconds.
Warning: Simulation tolerance relaxed to achieve convergence from 1.1265970519394387e-14 to 1.1266970519394387e-14 seconds.
Warning: Simulation tolerance relaxed to achieve convergence from 1.1268970519394386e-14 to 1.1269970519394386e-14 seconds.
Warning: Simulation tolerance relaxed to achieve convergence from 1.1269970519394386e-14 to 1.1270970519394386e-14 seconds.
Warning: Simulation tolerance relaxed to achieve convergence from 1.1270970519394386e-14 to 1.1271970519394386e-14 seconds.
Warning: Simulation tolerance relaxed to achieve convergence from 1.1274970519394385e-14 to 1.1275970519394385e-14 seconds.
Warning: Simulation tolerance relaxed to achieve convergence from 1.1275970519394385e-14 to 1.1276970519394385e-14 seconds.
Warning: Simulation tolerance relaxed to achieve convergence from 1.1278970519394385e-14 to 1.1279970519394384e-14 seconds.
Warning: Simulation tolerance relaxed to achieve convergence from 1.1279970519394384e-14 to 1.1280970519394384e-14 seconds.
Warning: Simulation tolerance relaxed to achieve convergence from 1.1286970519394383e-14 to 1.1287970519394383e-14 seconds.
Warning: Simulation tolerance relaxed to achieve convergence from 1.1287970519394383e-14 to 1.1288970519394383e-14 seconds.
Warning: Simulation tolerance relaxed to achieve convergence from 1.1288970519394383e-14 to 1.1289970519394383e-14 seconds.
Warning: Simulation tolerance relaxed to achieve convergence from 1.1292970519394382e-14 to 1.1293970519394382e-14 seconds.
Warning: Simulation tolerance relaxed to achieve convergence from 1.1295970519394382e-14 to 1.1296970519394381e-14 seconds.
Warning: Simulation tolerance relaxed to achieve convergence from 1.1296970519394381e-14 to 1.1297970519394381e-14 seconds.
Warning: Simulation tolerance relaxed to achieve convergence from 1.1297970519394381e-14 to 1.1298970519394381e-14 seconds.
Warning: Simulation tolerance relaxed to achieve convergence from 1.1298970519394381e-14 to 1.1299970519394381e-14 seconds.
Warning: Simulation tolerance relaxed to achieve convergence from 1.1301970519394380e-14 to 1.1302970519394380e-14 seconds.
Warning: Simulation tolerance relaxed to achieve convergence from 1.1303970519394380e-14 to 1.1304970519394380e-14 seconds.
Warning: Simulation tolerance relaxed to achieve convergence from 1.1304970519394380e-14 to 1.1305970519394380e-14 seconds.
Warning: Simulation tolerance relaxed to achieve convergence from 1.1305970519394380e-14 to 1.1306970519394380e-14 seconds.
Warning: Simulation tolerance relaxed to achieve convergence from 1.1309970519394379e-14 to 1.1310970519394379e-14 seconds.
Warning: Simulation tolerance relaxed to achieve convergence from 1.1317970519394378e-14 to 1.1318970519394377e-14 seconds.
Warning: Simulation tolerance relaxed to achieve convergence from 1.1318970519394377e-14 to 1.1319970519394377e-14 seconds.
Warning: Simulation tolerance relaxed to achieve convergence from 1.1320970519394377e-14 to 1.1321970519394377e-14 seconds.
Warning: Simulation tolerance relaxed to achieve convergence from 1.1321970519394377e-14 to 1.1322970519394377e-14 seconds.
Warning: Simulation tolerance relaxed to achieve convergence from 1.1328970519394376e-14 to 1.1329970519394375e-14 seconds.
Warning: Simulation tolerance relaxed to achieve convergence from 1.1331970519394375e-14 to 1.1332970519394375e-14 seconds.
Warning: Simulation tolerance relaxed to achieve convergence from 1.1332970519394375e-14 to 1.1333970519394375e-14 seconds.
Warning: Simulation tolerance relaxed to achieve convergence from 1.1333970519394375e-14 to 1.1334970519394374e-14 seconds.
Warning: Simulation tolerance relaxed to achieve convergence from 1.1334970519394374e-14 to 1.1335970519394374e-14 seconds.
Warning: Simulation tolerance relaxed to achieve convergence from 1.1347970519394372e-14 to 1.1348970519394372e-14 seconds.
Warning: Simulation tolerance relaxed to achieve convergence from 1.1348970519394372e-14 to 1.1349970519394372e-14 seconds.
Warning: Simulation tolerance relaxed to achieve convergence from 1.1349970519394372e-14 to 1.1350970519394372e-14 seconds.
Warning: Simulation tolerance relaxed to achieve convergence from 1.1350970519394372e-14 to 1.1351970519394371e-14 seconds.
Warning: Simulation tolerance relaxed to achieve convergence from 1.1352970519394371e-14 to 1.1353970519394371e-14 seconds.
Warning: Simulation tolerance relaxed to achieve convergence from 1.1353970519394371e-14 to 1.1354970519394371e-14 seconds.
Warning: Simulation tolerance relaxed to achieve convergence from 1.1360970519394370e-14 to 1.1361970519394370e-14 seconds.
Warning: Simulation tolerance relaxed to achieve convergence from 1.1361970519394370e-14 to 1.1362970519394369e-14 seconds.
Warning: Simulation tolerance relaxed to achieve convergence from 1.1369970519394368e-14 to 1.1370970519394368e-14 seconds.
Warning: Simulation tolerance relaxed to achieve convergence from 1.1370970519394368e-14 to 1.1371970519394368e-14 seconds.
Warning: Simulation tolerance relaxed to achieve convergence from 1.1372970519394368e-14 to 1.1373970519394367e-14 seconds.
Warning: Simulation tolerance relaxed to achieve convergence from 1.1373970519394367e-14 to 1.1374970519394367e-14 seconds.
Warning: Simulation tolerance relaxed to achieve convergence from 1.1374970519394367e-14 to 1.1375970519394367e-14 seconds.
Warning: Simulation tolerance relaxed to achieve convergence from 1.1375970519394367e-14 to 1.1376970519394367e-14 seconds.
Warning: Simulation tolerance relaxed to achieve convergence from 1.1376970519394367e-14 to 1.1377970519394367e-14 seconds.
Warning: Simulation tolerance relaxed to achieve convergence from 1.1391970519394366e-14 to 1.1392970519394366e-14 seconds.
Warning: Simulation tolerance relaxed to achieve convergence from 1.1393970519394365e-14 to 1.1394970519394365e-14 seconds.
Warning: Simulation tolerance relaxed to achieve convergence from 1.1397970519394365e-14 to 1.1398970519394364e-14 seconds.
Warning: Simulation tolerance relaxed to achieve convergence from 1.1419970519394362e-14 to 1.1420970519394362e-14 seconds.
Warning: Simulation tolerance relaxed to achieve convergence from 1.1424970519394361e-14 to 1.1425970519394361e-14 seconds.
Warning: Simulation tolerance relaxed to achieve convergence from 1.1425970519394361e-14 to 1.1426970519394361e-14 seconds.
Warning: Simulation tolerance relaxed to achieve convergence from 1.1440970519394360e-14 to 1.1441970519394360e-14 seconds.
Warning: Simulation tolerance relaxed to achieve convergence from 1.1442970519394360e-14 to 1.1443970519394360e-14 seconds.
Warning: Simulation tolerance relaxed to achieve convergence from 1.1444970519394359e-14 to 1.1445970519394359e-14 seconds.
Warning: Simulation tolerance relaxed to achieve convergence from 1.1445970519394359e-14 to 1.1446970519394359e-14 seconds.
Warning: Simulation tolerance relaxed to achieve convergence from 1.1446970519394359e-14 to 1.1447970519394359e-14 seconds.
Warning: Simulation tolerance relaxed to achieve convergence from 1.1447970519394359e-14 to 1.1448970519394359e-14 seconds.
Warning: Simulation tolerance relaxed to achieve convergence from 1.1449970519394358e-14 to 1.1450970519394358e-14 seconds.
Warning: Simulation tolerance relaxed to achieve convergence from 1.1461970519394356e-14 to 1.1462970519394356e-14 seconds.
Warning: Simulation tolerance relaxed to achieve convergence from 1.1462970519394356e-14 to 1.1463970519394356e-14 seconds.
Warning: Simulation tolerance relaxed to achieve convergence from 1.1463970519394356e-14 to 1.1464970519394356e-14 seconds.
Warning: Simulation tolerance relaxed to achieve convergence from 1.1464970519394356e-14 to 1.1465970519394356e-14 seconds.
Warning: Simulation tolerance relaxed to achieve convergence from 1.1465970519394356e-14 to 1.1466970519394355e-14 seconds.
Warning: Simulation tolerance relaxed to achieve convergence from 1.1466970519394355e-14 to 1.1467970519394355e-14 seconds.
Warning: Simulation tolerance relaxed to achieve convergence from 1.1484970519394352e-14 to 1.1485970519394352e-14 seconds.
Warning: Simulation tolerance relaxed to achieve convergence from 1.1487970519394352e-14 to 1.1488970519394351e-14 seconds.
Warning: Simulation tolerance relaxed to achieve convergence from 1.1488970519394351e-14 to 1.1489970519394351e-14 seconds.
Warning: Simulation tolerance relaxed to achieve convergence from 1.1523970519394348e-14 to 1.1524970519394348e-14 seconds.
Warning: Simulation tolerance relaxed to achieve convergence from 1.1524970519394348e-14 to 1.1525970519394348e-14 seconds.
Warning: Simulation tolerance relaxed to achieve convergence from 1.1527970519394347e-14 to 1.1528970519394347e-14 seconds.
Warning: Simulation tolerance relaxed to achieve convergence from 1.1528970519394347e-14 to 1.1529970519394347e-14 seconds.
Warning: Simulation tolerance relaxed to achieve convergence from 1.1529970519394347e-14 to 1.1530970519394347e-14 seconds.
Warning: Simulation tolerance relaxed to achieve convergence from 1.1530970519394347e-14 to 1.1531970519394347e-14 seconds.
Warning: Simulation tolerance relaxed to achieve convergence from 1.1531970519394347e-14 to 1.1532970519394347e-14 seconds.
Warning: Simulation tolerance relaxed to achieve convergence from 1.1532970519394347e-14 to 1.1533970519394346e-14 seconds.
Warning: Simulation tolerance relaxed to achieve convergence from 1.1535970519394346e-14 to 1.1536970519394346e-14 seconds.
Warning: Simulation tolerance relaxed to achieve convergence from 1.1536970519394346e-14 to 1.1537970519394346e-14 seconds.
Warning: Simulation tolerance relaxed to achieve convergence from 1.1539970519394345e-14 to 1.1540970519394345e-14 seconds.
Warning: Simulation tolerance relaxed to achieve convergence from 1.1542970519394345e-14 to 1.1543970519394345e-14 seconds.
Warning: Simulation tolerance relaxed to achieve convergence from 1.1543970519394345e-14 to 1.1544970519394344e-14 seconds.
Warning: Simulation tolerance relaxed to achieve convergence from 1.1548970519394344e-14 to 1.1549970519394343e-14 seconds.
Warning: Simulation tolerance relaxed to achieve convergence from 1.1549970519394343e-14 to 1.1550970519394343e-14 seconds.
Warning: Simulation tolerance relaxed to achieve convergence from 1.1550970519394343e-14 to 1.1551970519394343e-14 seconds.
Warning: Simulation tolerance relaxed to achieve convergence from 1.1553970519394343e-14 to 1.1554970519394343e-14 seconds.
Warning: Simulation tolerance relaxed to achieve convergence from 1.1554970519394343e-14 to 1.1555970519394342e-14 seconds.
Warning: Simulation tolerance relaxed to achieve convergence from 1.1555970519394342e-14 to 1.1556970519394342e-14 seconds.
Warning: Simulation tolerance relaxed to achieve convergence from 1.1559970519394342e-14 to 1.1560970519394341e-14 seconds.
Warning: Simulation tolerance relaxed to achieve convergence from 1.1560970519394341e-14 to 1.1561970519394341e-14 seconds.
Warning: Simulation tolerance relaxed to achieve convergence from 1.1566970519394340e-14 to 1.1567970519394340e-14 seconds.
Warning: Simulation tolerance relaxed to achieve convergence from 1.1569970519394340e-14 to 1.1570970519394340e-14 seconds.
Warning: Simulation tolerance relaxed to achieve convergence from 1.1570970519394340e-14 to 1.1571970519394339e-14 seconds.
Warning: Simulation tolerance relaxed to achieve convergence from 1.1572970519394339e-14 to 1.1573970519394339e-14 seconds.
Warning: Simulation tolerance relaxed to achieve convergence from 1.1573970519394339e-14 to 1.1574970519394339e-14 seconds.
Warning: Simulation tolerance relaxed to achieve convergence from 1.1580970519394338e-14 to 1.1581970519394338e-14 seconds.
Warning: Simulation tolerance relaxed to achieve convergence from 1.1588970519394336e-14 to 1.1589970519394336e-14 seconds.
Warning: Simulation tolerance relaxed to achieve convergence from 1.1593970519394336e-14 to 1.1594970519394335e-14 seconds.
Warning: Simulation tolerance relaxed to achieve convergence from 1.1594970519394335e-14 to 1.1595970519394335e-14 seconds.
Warning: Simulation tolerance relaxed to achieve convergence from 1.1595970519394335e-14 to 1.1596970519394335e-14 seconds.
Warning: Simulation tolerance relaxed to achieve convergence from 1.1597970519394335e-14 to 1.1598970519394335e-14 seconds.
Warning: Simulation tolerance relaxed to achieve convergence from 1.1598970519394335e-14 to 1.1599970519394334e-14 seconds.
Warning: Simulation tolerance relaxed to achieve convergence from 1.1601970519394334e-14 to 1.1602970519394334e-14 seconds.
Warning: Simulation tolerance relaxed to achieve convergence from 1.1608970519394333e-14 to 1.1609970519394333e-14 seconds.
Warning: Simulation tolerance relaxed to achieve convergence from 1.1609970519394333e-14 to 1.1610970519394332e-14 seconds.
Warning: Simulation tolerance relaxed to achieve convergence from 1.1610970519394332e-14 to 1.1611970519394332e-14 seconds.
Warning: Simulation tolerance relaxed to achieve convergence from 1.1628970519394331e-14 to 1.1629970519394331e-14 seconds.
Warning: Simulation tolerance relaxed to achieve convergence from 1.1629970519394331e-14 to 1.1630970519394330e-14 seconds.
Warning: Simulation tolerance relaxed to achieve convergence from 1.1632970519394330e-14 to 1.1633970519394330e-14 seconds.
Warning: Simulation tolerance relaxed to achieve convergence from 1.1633970519394330e-14 to 1.1634970519394330e-14 seconds.
Warning: Simulation tolerance relaxed to achieve convergence from 1.1654970519394328e-14 to 1.1655970519394327e-14 seconds.
Warning: Simulation tolerance relaxed to achieve convergence from 1.1655970519394327e-14 to 1.1656970519394327e-14 seconds.
Warning: Simulation tolerance relaxed to achieve convergence from 1.1664970519394326e-14 to 1.1665970519394326e-14 seconds.
Warning: Simulation tolerance relaxed to achieve convergence from 1.1667970519394325e-14 to 1.1668970519394325e-14 seconds.
Warning: Simulation tolerance relaxed to achieve convergence from 1.1669970519394325e-14 to 1.1670970519394325e-14 seconds.
Warning: Simulation tolerance relaxed to achieve convergence from 1.1670970519394325e-14 to 1.1671970519394325e-14 seconds.
Warning: Simulation tolerance relaxed to achieve convergence from 1.1674970519394324e-14 to 1.1675970519394324e-14 seconds.
Warning: Simulation tolerance relaxed to achieve convergence from 1.1684970519394322e-14 to 1.1685970519394322e-14 seconds.
Warning: Simulation tolerance relaxed to achieve convergence from 1.1691970519394321e-14 to 1.1692970519394321e-14 seconds.
Warning: Simulation tolerance relaxed to achieve convergence from 1.1692970519394321e-14 to 1.1693970519394321e-14 seconds.
Warning: Simulation tolerance relaxed to achieve convergence from 1.1693970519394321e-14 to 1.1694970519394320e-14 seconds.
Warning: Simulation tolerance relaxed to achieve convergence from 1.1708970519394319e-14 to 1.1709970519394319e-14 seconds.
Warning: Simulation tolerance relaxed to achieve convergence from 1.1731970519394317e-14 to 1.1732970519394317e-14 seconds.
Warning: Simulation tolerance relaxed to achieve convergence from 1.1732970519394317e-14 to 1.1733970519394316e-14 seconds.
Warning: Simulation tolerance relaxed to achieve convergence from 1.1733970519394316e-14 to 1.1734970519394316e-14 seconds.
Warning: Simulation tolerance relaxed to achieve convergence from 1.1734970519394316e-14 to 1.1735970519394316e-14 seconds.
Warning: Simulation tolerance relaxed to achieve convergence from 1.1737970519394316e-14 to 1.1738970519394316e-14 seconds.
Warning: Simulation tolerance relaxed to achieve convergence from 1.1742970519394315e-14 to 1.1743970519394315e-14 seconds.
Warning: Simulation tolerance relaxed to achieve convergence from 1.1744970519394314e-14 to 1.1745970519394314e-14 seconds.
Warning: Simulation tolerance relaxed to achieve convergence from 1.1747970519394314e-14 to 1.1748970519394314e-14 seconds.
Warning: Simulation tolerance relaxed to achieve convergence from 1.1750970519394313e-14 to 1.1751970519394313e-14 seconds.
Warning: Simulation tolerance relaxed to achieve convergence from 1.1751970519394313e-14 to 1.1752970519394313e-14 seconds.
Warning: Simulation tolerance relaxed to achieve convergence from 1.1755970519394313e-14 to 1.1756970519394312e-14 seconds.
Warning: Simulation tolerance relaxed to achieve convergence from 1.1756970519394312e-14 to 1.1757970519394312e-14 seconds.
Warning: Simulation tolerance relaxed to achieve convergence from 1.1757970519394312e-14 to 1.1758970519394312e-14 seconds.
Warning: Simulation tolerance relaxed to achieve convergence from 1.1758970519394312e-14 to 1.1759970519394312e-14 seconds.
Warning: Simulation tolerance relaxed to achieve convergence from 1.1759970519394312e-14 to 1.1760970519394312e-14 seconds.
Warning: Simulation tolerance relaxed to achieve convergence from 1.1760970519394312e-14 to 1.1761970519394311e-14 seconds.
Warning: Simulation tolerance relaxed to achieve convergence from 1.1763970519394311e-14 to 1.1764970519394311e-14 seconds.
Warning: Simulation tolerance relaxed to achieve convergence from 1.1766970519394311e-14 to 1.1767970519394310e-14 seconds.
Warning: Simulation tolerance relaxed to achieve convergence from 1.1767970519394310e-14 to 1.1768970519394310e-14 seconds.
Warning: Simulation tolerance relaxed to achieve convergence from 1.1774970519394309e-14 to 1.1775970519394309e-14 seconds.
Warning: Simulation tolerance relaxed to achieve convergence from 1.1781970519394308e-14 to 1.1782970519394308e-14 seconds.
Warning: Simulation tolerance relaxed to achieve convergence from 1.1782970519394308e-14 to 1.1783970519394307e-14 seconds.
Warning: Simulation tolerance relaxed to achieve convergence from 1.1783970519394307e-14 to 1.1784970519394307e-14 seconds.
Warning: Simulation tolerance relaxed to achieve convergence from 1.1789970519394306e-14 to 1.1790970519394306e-14 seconds.
Warning: Simulation tolerance relaxed to achieve convergence from 1.1790970519394306e-14 to 1.1791970519394306e-14 seconds.
Warning: Simulation tolerance relaxed to achieve convergence from 1.1793970519394306e-14 to 1.1794970519394305e-14 seconds.
Warning: Simulation tolerance relaxed to achieve convergence from 1.1795970519394305e-14 to 1.1796970519394305e-14 seconds.
Warning: Simulation tolerance relaxed to achieve convergence from 1.1802970519394304e-14 to 1.1803970519394304e-14 seconds.
Warning: Simulation tolerance relaxed to achieve convergence from 1.1803970519394304e-14 to 1.1804970519394304e-14 seconds.
Warning: Simulation tolerance relaxed to achieve convergence from 1.1804970519394304e-14 to 1.1805970519394303e-14 seconds.
Warning: Simulation tolerance relaxed to achieve convergence from 1.1805970519394303e-14 to 1.1806970519394303e-14 seconds.
Warning: Simulation tolerance relaxed to achieve convergence from 1.1810970519394303e-14 to 1.1811970519394302e-14 seconds.
Warning: Simulation tolerance relaxed to achieve convergence from 1.1811970519394302e-14 to 1.1812970519394302e-14 seconds.
Warning: Simulation tolerance relaxed to achieve convergence from 1.1845970519394301e-14 to 1.1846970519394301e-14 seconds.
Warning: Simulation tolerance relaxed to achieve convergence from 1.1846970519394301e-14 to 1.1847970519394301e-14 seconds.
Warning: Simulation tolerance relaxed to achieve convergence from 1.1848970519394300e-14 to 1.1849970519394300e-14 seconds.
Warning: Simulation tolerance relaxed to achieve convergence from 1.1849970519394300e-14 to 1.1850970519394300e-14 seconds.
Warning: Simulation tolerance relaxed to achieve convergence from 1.1850970519394300e-14 to 1.1851970519394300e-14 seconds.
Warning: Simulation tolerance relaxed to achieve convergence from 1.1851970519394300e-14 to 1.1852970519394300e-14 seconds.
Warning: Simulation tolerance relaxed to achieve convergence from 1.1854970519394299e-14 to 1.1855970519394299e-14 seconds.
Warning: Simulation tolerance relaxed to achieve convergence from 1.1855970519394299e-14 to 1.1856970519394299e-14 seconds.
Warning: Simulation tolerance relaxed to achieve convergence from 1.1856970519394299e-14 to 1.1857970519394299e-14 seconds.
Warning: Simulation tolerance relaxed to achieve convergence from 1.1859970519394298e-14 to 1.1860970519394298e-14 seconds.
Warning: Simulation tolerance relaxed to achieve convergence from 1.1865970519394297e-14 to 1.1866970519394297e-14 seconds.
Warning: Simulation tolerance relaxed to achieve convergence from 1.1869970519394297e-14 to 1.1870970519394296e-14 seconds.
Warning: Simulation tolerance relaxed to achieve convergence from 1.1870970519394296e-14 to 1.1871970519394296e-14 seconds.
Warning: Simulation tolerance relaxed to achieve convergence from 1.1873970519394296e-14 to 1.1874970519394296e-14 seconds.
Warning: Simulation tolerance relaxed to achieve convergence from 1.1874970519394296e-14 to 1.1875970519394296e-14 seconds.
Warning: Simulation tolerance relaxed to achieve convergence from 1.1881970519394294e-14 to 1.1882970519394294e-14 seconds.
Warning: Simulation tolerance relaxed to achieve convergence from 1.1882970519394294e-14 to 1.1883970519394294e-14 seconds.
Warning: Simulation tolerance relaxed to achieve convergence from 1.1884970519394294e-14 to 1.1885970519394294e-14 seconds.
Warning: Simulation tolerance relaxed to achieve convergence from 1.1885970519394294e-14 to 1.1886970519394294e-14 seconds.
Warning: Simulation tolerance relaxed to achieve convergence from 1.1886970519394294e-14 to 1.1887970519394293e-14 seconds.
Warning: Simulation tolerance relaxed to achieve convergence from 1.1889970519394293e-14 to 1.1890970519394293e-14 seconds.
Warning: Simulation tolerance relaxed to achieve convergence from 1.1892970519394292e-14 to 1.1893970519394292e-14 seconds.
Warning: Simulation tolerance relaxed to achieve convergence from 1.1893970519394292e-14 to 1.1894970519394292e-14 seconds.
Warning: Simulation tolerance relaxed to achieve convergence from 1.1902970519394291e-14 to 1.1903970519394290e-14 seconds.
Warning: Simulation tolerance relaxed to achieve convergence from 1.1903970519394290e-14 to 1.1904970519394290e-14 seconds.
Warning: Simulation tolerance relaxed to achieve convergence from 1.1904970519394290e-14 to 1.1905970519394290e-14 seconds.
Warning: Simulation tolerance relaxed to achieve convergence from 1.1907970519394290e-14 to 1.1908970519394290e-14 seconds.
Warning: Simulation tolerance relaxed to achieve convergence from 1.1914970519394288e-14 to 1.1915970519394288e-14 seconds.
Warning: Simulation tolerance relaxed to achieve convergence from 1.1916970519394288e-14 to 1.1917970519394288e-14 seconds.
Warning: Simulation tolerance relaxed to achieve convergence from 1.1919970519394288e-14 to 1.1920970519394287e-14 seconds.
Warning: Simulation tolerance relaxed to achieve convergence from 1.1926970519394286e-14 to 1.1927970519394286e-14 seconds.
Warning: Simulation tolerance relaxed to achieve convergence from 1.1927970519394286e-14 to 1.1928970519394286e-14 seconds.
Warning: Simulation tolerance relaxed to achieve convergence from 1.1928970519394286e-14 to 1.1929970519394286e-14 seconds.
Warning: Simulation tolerance relaxed to achieve convergence from 1.1929970519394286e-14 to 1.1930970519394286e-14 seconds.
Warning: Simulation tolerance relaxed to achieve convergence from 1.1930970519394286e-14 to 1.1931970519394285e-14 seconds.
Warning: Simulation tolerance relaxed to achieve convergence from 1.1933970519394285e-14 to 1.1934970519394285e-14 seconds.
Warning: Simulation tolerance relaxed to achieve convergence from 1.1935970519394285e-14 to 1.1936970519394284e-14 seconds.
Warning: Simulation tolerance relaxed to achieve convergence from 1.1936970519394284e-14 to 1.1937970519394284e-14 seconds.
Warning: Simulation tolerance relaxed to achieve convergence from 1.1937970519394284e-14 to 1.1938970519394284e-14 seconds.
Warning: Simulation tolerance relaxed to achieve convergence from 1.1938970519394284e-14 to 1.1939970519394284e-14 seconds.
Warning: Simulation tolerance relaxed to achieve convergence from 1.1958970519394281e-14 to 1.1959970519394280e-14 seconds.
Warning: Simulation tolerance relaxed to achieve convergence from 1.1960970519394280e-14 to 1.1961970519394280e-14 seconds.
Warning: Simulation tolerance relaxed to achieve convergence from 1.1961970519394280e-14 to 1.1962970519394280e-14 seconds.
Warning: Simulation tolerance relaxed to achieve convergence from 1.1966970519394279e-14 to 1.1967970519394279e-14 seconds.
Warning: Simulation tolerance relaxed to achieve convergence from 1.1973970519394278e-14 to 1.1974970519394278e-14 seconds.
Warning: Simulation tolerance relaxed to achieve convergence from 1.1974970519394278e-14 to 1.1975970519394277e-14 seconds.
Warning: Simulation tolerance relaxed to achieve convergence from 1.1978970519394277e-14 to 1.1979970519394277e-14 seconds.
Warning: Simulation tolerance relaxed to achieve convergence from 1.1979970519394277e-14 to 1.1980970519394277e-14 seconds.
Warning: Simulation tolerance relaxed to achieve convergence from 1.1980970519394277e-14 to 1.1981970519394276e-14 seconds.
Warning: Simulation tolerance relaxed to achieve convergence from 1.2016970519394275e-14 to 1.2017970519394275e-14 seconds.
Warning: Simulation tolerance relaxed to achieve convergence from 1.2019970519394274e-14 to 1.2020970519394274e-14 seconds.
Warning: Simulation tolerance relaxed to achieve convergence from 1.2022970519394274e-14 to 1.2023970519394273e-14 seconds.
Warning: Simulation tolerance relaxed to achieve convergence from 1.2023970519394273e-14 to 1.2024970519394273e-14 seconds.
Warning: Simulation tolerance relaxed to achieve convergence from 1.2024970519394273e-14 to 1.2025970519394273e-14 seconds.
Warning: Simulation tolerance relaxed to achieve convergence from 1.2025970519394273e-14 to 1.2026970519394273e-14 seconds.
Warning: Simulation tolerance relaxed to achieve convergence from 1.2029970519394272e-14 to 1.2030970519394272e-14 seconds.
Warning: Simulation tolerance relaxed to achieve convergence from 1.2030970519394272e-14 to 1.2031970519394272e-14 seconds.
Warning: Simulation tolerance relaxed to achieve convergence from 1.2036970519394271e-14 to 1.2037970519394271e-14 seconds.
Warning: Simulation tolerance relaxed to achieve convergence from 1.2039970519394271e-14 to 1.2040970519394270e-14 seconds.
Warning: Simulation tolerance relaxed to achieve convergence from 1.2042970519394270e-14 to 1.2043970519394270e-14 seconds.
Warning: Simulation tolerance relaxed to achieve convergence from 1.2057970519394269e-14 to 1.2058970519394269e-14 seconds.
Warning: Simulation tolerance relaxed to achieve convergence from 1.2064970519394268e-14 to 1.2065970519394267e-14 seconds.
Warning: Simulation tolerance relaxed to achieve convergence from 1.2074970519394266e-14 to 1.2075970519394266e-14 seconds.
Warning: Simulation tolerance relaxed to achieve convergence from 1.2075970519394266e-14 to 1.2076970519394265e-14 seconds.
Warning: Simulation tolerance relaxed to achieve convergence from 1.2076970519394265e-14 to 1.2077970519394265e-14 seconds.
Warning: Simulation tolerance relaxed to achieve convergence from 1.2077970519394265e-14 to 1.2078970519394265e-14 seconds.
Warning: Simulation tolerance relaxed to achieve convergence from 1.2078970519394265e-14 to 1.2079970519394265e-14 seconds.
Warning: Simulation tolerance relaxed to achieve convergence from 1.2365970519394265e-14 to 1.2366970519394265e-14 seconds.
Warning: Simulation tolerance relaxed to achieve convergence from 1.2368970519394265e-14 to 1.2369970519394265e-14 seconds.
Warning: Simulation tolerance relaxed to achieve convergence from 1.2371970519394264e-14 to 1.2372970519394264e-14 seconds.
Warning: Simulation tolerance relaxed to achieve convergence from 1.2372970519394264e-14 to 1.2373970519394264e-14 seconds.
Warning: Simulation tolerance relaxed to achieve convergence from 1.2375970519394263e-14 to 1.2376970519394263e-14 seconds.
Warning: Simulation tolerance relaxed to achieve convergence from 1.2376970519394263e-14 to 1.2377970519394263e-14 seconds.
Warning: Simulation tolerance relaxed to achieve convergence from 1.2382970519394262e-14 to 1.2383970519394262e-14 seconds.
Warning: Simulation tolerance relaxed to achieve convergence from 1.2383970519394262e-14 to 1.2384970519394262e-14 seconds.
Warning: Simulation tolerance relaxed to achieve convergence from 1.2386970519394261e-14 to 1.2387970519394261e-14 seconds.
Warning: Simulation tolerance relaxed to achieve convergence from 1.2387970519394261e-14 to 1.2388970519394261e-14 seconds.
Warning: Simulation tolerance relaxed to achieve convergence from 1.2389970519394261e-14 to 1.2390970519394261e-14 seconds.
Warning: Simulation tolerance relaxed to achieve convergence from 1.2397970519394259e-14 to 1.2398970519394259e-14 seconds.
Warning: Simulation tolerance relaxed to achieve convergence from 1.2416970519394258e-14 to 1.2417970519394257e-14 seconds.
Warning: Simulation tolerance relaxed to achieve convergence from 1.2423970519394256e-14 to 1.2424970519394256e-14 seconds.
Warning: Simulation tolerance relaxed to achieve convergence from 1.2424970519394256e-14 to 1.2425970519394256e-14 seconds.
Warning: Simulation tolerance relaxed to achieve convergence from 1.2426970519394256e-14 to 1.2427970519394256e-14 seconds.
Warning: Simulation tolerance relaxed to achieve convergence from 1.2427970519394256e-14 to 1.2428970519394255e-14 seconds.
Warning: Simulation tolerance relaxed to achieve convergence from 1.2431970519394255e-14 to 1.2432970519394255e-14 seconds.
Warning: Simulation tolerance relaxed to achieve convergence from 1.2442970519394253e-14 to 1.2443970519394253e-14 seconds.
Warning: Simulation tolerance relaxed to achieve convergence from 1.2446970519394252e-14 to 1.2447970519394252e-14 seconds.
Warning: Simulation tolerance relaxed to achieve convergence from 1.2458970519394250e-14 to 1.2459970519394250e-14 seconds.
Warning: Simulation tolerance relaxed to achieve convergence from 1.2468970519394248e-14 to 1.2469970519394248e-14 seconds.
Warning: Simulation tolerance relaxed to achieve convergence from 1.2469970519394248e-14 to 1.2470970519394248e-14 seconds.
Warning: Simulation tolerance relaxed to achieve convergence from 1.2474970519394247e-14 to 1.2475970519394247e-14 seconds.
Warning: Simulation tolerance relaxed to achieve convergence from 1.2475970519394247e-14 to 1.2476970519394247e-14 seconds.
Warning: Simulation tolerance relaxed to achieve convergence from 1.2477970519394247e-14 to 1.2478970519394246e-14 seconds.
Warning: Simulation tolerance relaxed to achieve convergence from 1.2484970519394245e-14 to 1.2485970519394245e-14 seconds.
Warning: Simulation tolerance relaxed to achieve convergence from 1.2489970519394244e-14 to 1.2490970519394244e-14 seconds.
Warning: Simulation tolerance relaxed to achieve convergence from 1.2492970519394244e-14 to 1.2493970519394244e-14 seconds.
Warning: Simulation tolerance relaxed to achieve convergence from 1.2501970519394242e-14 to 1.2502970519394242e-14 seconds.
Warning: Simulation tolerance relaxed to achieve convergence from 1.2502970519394242e-14 to 1.2503970519394242e-14 seconds.
Warning: Simulation tolerance relaxed to achieve convergence from 1.2503970519394242e-14 to 1.2504970519394242e-14 seconds.
Warning: Simulation tolerance relaxed to achieve convergence from 1.2505970519394241e-14 to 1.2506970519394241e-14 seconds.
Warning: Simulation tolerance relaxed to achieve convergence from 1.2507970519394241e-14 to 1.2508970519394241e-14 seconds.
Warning: Simulation tolerance relaxed to achieve convergence from 1.2509970519394241e-14 to 1.2510970519394241e-14 seconds.
Warning: Simulation tolerance relaxed to achieve convergence from 1.2511970519394240e-14 to 1.2512970519394240e-14 seconds.
Warning: Simulation tolerance relaxed to achieve convergence from 1.2514970519394240e-14 to 1.2515970519394240e-14 seconds.
Warning: Simulation tolerance relaxed to achieve convergence from 1.2517970519394239e-14 to 1.2518970519394239e-14 seconds.
Warning: Simulation tolerance relaxed to achieve convergence from 1.2520970519394239e-14 to 1.2521970519394239e-14 seconds.
Warning: Simulation tolerance relaxed to achieve convergence from 1.2521970519394239e-14 to 1.2522970519394238e-14 seconds.
Warning: Simulation tolerance relaxed to achieve convergence from 1.2524970519394238e-14 to 1.2525970519394238e-14 seconds.
Warning: Simulation tolerance relaxed to achieve convergence from 1.2525970519394238e-14 to 1.2526970519394238e-14 seconds.
Warning: Simulation tolerance relaxed to achieve convergence from 1.2526970519394238e-14 to 1.2527970519394237e-14 seconds.
Warning: Simulation tolerance relaxed to achieve convergence from 1.2529970519394237e-14 to 1.2530970519394237e-14 seconds.
Warning: Simulation tolerance relaxed to achieve convergence from 1.4000970519394238e-14 to 1.4001970519394237e-14 seconds.
Warning: Simulation tolerance relaxed to achieve convergence from 1.4001970519394237e-14 to 1.4002970519394237e-14 seconds.
Warning: Simulation tolerance relaxed to achieve convergence from 1.4039970519394235e-14 to 1.4040970519394235e-14 seconds.
Warning: Simulation tolerance relaxed to achieve convergence from 1.4043970519394235e-14 to 1.4044970519394234e-14 seconds.
Warning: Simulation tolerance relaxed to achieve convergence from 1.4046970519394234e-14 to 1.4047970519394234e-14 seconds.
Warning: Simulation tolerance relaxed to achieve convergence from 1.4047970519394234e-14 to 1.4048970519394234e-14 seconds.
Warning: Simulation tolerance relaxed to achieve convergence from 1.4048970519394234e-14 to 1.4049970519394233e-14 seconds.
Warning: Simulation tolerance relaxed to achieve convergence from 1.4073970519394231e-14 to 1.4074970519394230e-14 seconds.
Warning: Simulation tolerance relaxed to achieve convergence from 1.4088970519394230e-14 to 1.4089970519394229e-14 seconds.
Warning: Simulation tolerance relaxed to achieve convergence from 1.4090970519394229e-14 to 1.4091970519394229e-14 seconds.
Warning: Simulation tolerance relaxed to achieve convergence from 1.4128970519394227e-14 to 1.4129970519394227e-14 seconds.
Warning: Simulation tolerance relaxed to achieve convergence from 1.4142970519394224e-14 to 1.4143970519394224e-14 seconds.
Warning: Simulation tolerance relaxed to achieve convergence from 1.4143970519394224e-14 to 1.4144970519394224e-14 seconds.
Warning: Simulation tolerance relaxed to achieve convergence from 1.4146970519394224e-14 to 1.4147970519394224e-14 seconds.
Warning: Simulation tolerance relaxed to achieve convergence from 1.4148970519394223e-14 to 1.4149970519394223e-14 seconds.
Warning: Simulation tolerance relaxed to achieve convergence from 1.4155970519394222e-14 to 1.4156970519394222e-14 seconds.
Warning: Simulation tolerance relaxed to achieve convergence from 1.4157970519394222e-14 to 1.4158970519394222e-14 seconds.
Warning: Simulation tolerance relaxed to achieve convergence from 1.4158970519394222e-14 to 1.4159970519394221e-14 seconds.
Warning: Simulation tolerance relaxed to achieve convergence from 1.4159970519394221e-14 to 1.4160970519394221e-14 seconds.
Warning: Simulation tolerance relaxed to achieve convergence from 1.4160970519394221e-14 to 1.4161970519394221e-14 seconds.
Warning: Simulation tolerance relaxed to achieve convergence from 1.4161970519394221e-14 to 1.4162970519394221e-14 seconds.
Warning: Simulation tolerance relaxed to achieve convergence from 1.4166970519394220e-14 to 1.4167970519394220e-14 seconds.
Warning: Simulation tolerance relaxed to achieve convergence from 1.4170970519394219e-14 to 1.4171970519394219e-14 seconds.
Warning: Simulation tolerance relaxed to achieve convergence from 1.4172970519394219e-14 to 1.4173970519394219e-14 seconds.
Warning: Simulation tolerance relaxed to achieve convergence from 1.4173970519394219e-14 to 1.4174970519394219e-14 seconds.
Warning: Simulation tolerance relaxed to achieve convergence from 1.4177970519394218e-14 to 1.4178970519394218e-14 seconds.
Warning: Simulation tolerance relaxed to achieve convergence from 1.4179970519394218e-14 to 1.4180970519394218e-14 seconds.
Warning: Simulation tolerance relaxed to achieve convergence from 1.4180970519394218e-14 to 1.4181970519394217e-14 seconds.
Warning: Simulation tolerance relaxed to achieve convergence from 1.4183970519394217e-14 to 1.4184970519394217e-14 seconds.
Warning: Simulation tolerance relaxed to achieve convergence from 1.4187970519394216e-14 to 1.4188970519394216e-14 seconds.
Warning: Simulation tolerance relaxed to achieve convergence from 1.4197970519394215e-14 to 1.4198970519394214e-14 seconds.
Warning: Simulation tolerance relaxed to achieve convergence from 1.4198970519394214e-14 to 1.4199970519394214e-14 seconds.
Warning: Simulation tolerance relaxed to achieve convergence from 1.4205970519394213e-14 to 1.4206970519394213e-14 seconds.
Warning: Simulation tolerance relaxed to achieve convergence from 1.4206970519394213e-14 to 1.4207970519394213e-14 seconds.
Warning: Simulation tolerance relaxed to achieve convergence from 1.4207970519394213e-14 to 1.4208970519394213e-14 seconds.
Warning: Simulation tolerance relaxed to achieve convergence from 1.4209970519394212e-14 to 1.4210970519394214e-14 seconds.
Warning: Simulation tolerance relaxed to achieve convergence from 1.4210970519394214e-14 to 1.4211970519394214e-14 seconds.
Warning: Simulation tolerance relaxed to achieve convergence from 1.4213970519394213e-14 to 1.4214970519394213e-14 seconds.
Warning: Simulation tolerance relaxed to achieve convergence from 1.4214970519394213e-14 to 1.4215970519394213e-14 seconds.
Warning: Simulation tolerance relaxed to achieve convergence from 1.4216970519394213e-14 to 1.4217970519394212e-14 seconds.
Warning: Simulation tolerance relaxed to achieve convergence from 1.4222970519394212e-14 to 1.4223970519394211e-14 seconds.
Warning: Simulation tolerance relaxed to achieve convergence from 1.4223970519394211e-14 to 1.4224970519394211e-14 seconds.
Warning: Simulation tolerance relaxed to achieve convergence from 1.4227970519394211e-14 to 1.4228970519394210e-14 seconds.
Warning: Simulation tolerance relaxed to achieve convergence from 1.4228970519394210e-14 to 1.4229970519394210e-14 seconds.
Warning: Simulation tolerance relaxed to achieve convergence from 1.4229970519394210e-14 to 1.4230970519394210e-14 seconds.
Warning: Simulation tolerance relaxed to achieve convergence from 1.4232970519394210e-14 to 1.4233970519394210e-14 seconds.
Warning: Simulation tolerance relaxed to achieve convergence from 1.4235970519394209e-14 to 1.4236970519394209e-14 seconds.
Warning: Simulation tolerance relaxed to achieve convergence from 1.4239970519394209e-14 to 1.4240970519394208e-14 seconds.
Warning: Simulation tolerance relaxed to achieve convergence from 1.4246970519394207e-14 to 1.4247970519394207e-14 seconds.
Warning: Simulation tolerance relaxed to achieve convergence from 1.4251970519394206e-14 to 1.4252970519394206e-14 seconds.
Warning: Simulation tolerance relaxed to achieve convergence from 1.4260970519394205e-14 to 1.4261970519394205e-14 seconds.
Warning: Simulation tolerance relaxed to achieve convergence from 1.4263970519394204e-14 to 1.4264970519394204e-14 seconds.
Warning: Simulation tolerance relaxed to achieve convergence from 1.4264970519394204e-14 to 1.4265970519394204e-14 seconds.
Warning: Simulation tolerance relaxed to achieve convergence from 1.4265970519394204e-14 to 1.4266970519394204e-14 seconds.
Warning: Simulation tolerance relaxed to achieve convergence from 1.4269970519394203e-14 to 1.4270970519394203e-14 seconds.
Warning: Simulation tolerance relaxed to achieve convergence from 1.4270970519394203e-14 to 1.4271970519394203e-14 seconds.
Warning: Simulation tolerance relaxed to achieve convergence from 1.4274970519394202e-14 to 1.4275970519394202e-14 seconds.
Warning: Simulation tolerance relaxed to achieve convergence from 1.4275970519394202e-14 to 1.4276970519394202e-14 seconds.
Warning: Simulation tolerance relaxed to achieve convergence from 1.4276970519394202e-14 to 1.4277970519394202e-14 seconds.
Warning: Simulation tolerance relaxed to achieve convergence from 1.4277970519394202e-14 to 1.4278970519394201e-14 seconds.
Warning: Simulation tolerance relaxed to achieve convergence from 1.4279970519394201e-14 to 1.4280970519394201e-14 seconds.
Warning: Simulation tolerance relaxed to achieve convergence from 1.4280970519394201e-14 to 1.4281970519394201e-14 seconds.
Warning: Simulation tolerance relaxed to achieve convergence from 1.4281970519394201e-14 to 1.4282970519394201e-14 seconds.
Warning: Simulation tolerance relaxed to achieve convergence from 1.4282970519394201e-14 to 1.4283970519394201e-14 seconds.
Warning: Simulation tolerance relaxed to achieve convergence from 1.4283970519394201e-14 to 1.4284970519394200e-14 seconds.
Warning: Simulation tolerance relaxed to achieve convergence from 1.4284970519394200e-14 to 1.4285970519394200e-14 seconds.
Warning: Simulation tolerance relaxed to achieve convergence from 1.4285970519394200e-14 to 1.4286970519394200e-14 seconds.
Warning: Simulation tolerance relaxed to achieve convergence from 1.4286970519394200e-14 to 1.4287970519394200e-14 seconds.
Warning: Simulation tolerance relaxed to achieve convergence from 1.4287970519394200e-14 to 1.4288970519394200e-14 seconds.
Warning: Simulation tolerance relaxed to achieve convergence from 1.4294970519394199e-14 to 1.4295970519394198e-14 seconds.
Warning: Simulation tolerance relaxed to achieve convergence from 1.4295970519394198e-14 to 1.4296970519394198e-14 seconds.
Warning: Simulation tolerance relaxed to achieve convergence from 1.4433970519394195e-14 to 1.4434970519394195e-14 seconds.
Warning: Simulation tolerance relaxed to achieve convergence from 1.4438970519394195e-14 to 1.4439970519394194e-14 seconds.
Warning: Simulation tolerance relaxed to achieve convergence from 1.4439970519394194e-14 to 1.4440970519394194e-14 seconds.
Warning: Simulation tolerance relaxed to achieve convergence from 1.4470970519394192e-14 to 1.4471970519394192e-14 seconds.
Warning: Simulation tolerance relaxed to achieve convergence from 1.4471970519394192e-14 to 1.4472970519394192e-14 seconds.
Warning: Simulation tolerance relaxed to achieve convergence from 1.4473970519394191e-14 to 1.4474970519394191e-14 seconds.
Warning: Simulation tolerance relaxed to achieve convergence from 1.4476970519394191e-14 to 1.4477970519394191e-14 seconds.
Warning: Simulation tolerance relaxed to achieve convergence from 1.4477970519394191e-14 to 1.4478970519394191e-14 seconds.
Warning: Simulation tolerance relaxed to achieve convergence from 1.4480970519394190e-14 to 1.4481970519394190e-14 seconds.
Warning: Simulation tolerance relaxed to achieve convergence from 1.4486970519394189e-14 to 1.4487970519394189e-14 seconds.
Warning: Simulation tolerance relaxed to achieve convergence from 1.4487970519394189e-14 to 1.4488970519394189e-14 seconds.
Warning: Simulation tolerance relaxed to achieve convergence from 1.4488970519394189e-14 to 1.4489970519394189e-14 seconds.
Warning: Simulation tolerance relaxed to achieve convergence from 1.4500970519394187e-14 to 1.4501970519394186e-14 seconds.
Warning: Simulation tolerance relaxed to achieve convergence from 1.4501970519394186e-14 to 1.4502970519394186e-14 seconds.
Warning: Simulation tolerance relaxed to achieve convergence from 1.4502970519394186e-14 to 1.4503970519394186e-14 seconds.
Warning: Simulation tolerance relaxed to achieve convergence from 1.4511970519394185e-14 to 1.4512970519394184e-14 seconds.
Warning: Simulation tolerance relaxed to achieve convergence from 1.4514970519394184e-14 to 1.4515970519394184e-14 seconds.
Warning: Simulation tolerance relaxed to achieve convergence from 1.4527970519394182e-14 to 1.4528970519394181e-14 seconds.
Warning: Simulation tolerance relaxed to achieve convergence from 1.4535970519394180e-14 to 1.4536970519394180e-14 seconds.
Warning: Simulation tolerance relaxed to achieve convergence from 1.4538970519394180e-14 to 1.4539970519394179e-14 seconds.
Warning: Simulation tolerance relaxed to achieve convergence from 1.4541970519394179e-14 to 1.4542970519394179e-14 seconds.
Warning: Simulation tolerance relaxed to achieve convergence from 1.4544970519394179e-14 to 1.4545970519394178e-14 seconds.
Warning: Simulation tolerance relaxed to achieve convergence from 1.4549970519394178e-14 to 1.4550970519394177e-14 seconds.
Warning: Simulation tolerance relaxed to achieve convergence from 1.4567970519394174e-14 to 1.4568970519394174e-14 seconds.
Warning: Simulation tolerance relaxed to achieve convergence from 1.4570970519394174e-14 to 1.4571970519394174e-14 seconds.
Warning: Simulation tolerance relaxed to achieve convergence from 1.4572970519394173e-14 to 1.4573970519394173e-14 seconds.
Warning: Simulation tolerance relaxed to achieve convergence from 1.4576970519394173e-14 to 1.4577970519394173e-14 seconds.
Warning: Simulation tolerance relaxed to achieve convergence from 1.4579970519394172e-14 to 1.4580970519394172e-14 seconds.
Warning: Simulation tolerance relaxed to achieve convergence from 1.4582970519394172e-14 to 1.4583970519394171e-14 seconds.
Warning: Simulation tolerance relaxed to achieve convergence from 1.4589970519394170e-14 to 1.4590970519394170e-14 seconds.
Warning: Simulation tolerance relaxed to achieve convergence from 1.4590970519394170e-14 to 1.4591970519394170e-14 seconds.
Warning: Simulation tolerance relaxed to achieve convergence from 1.4594970519394170e-14 to 1.4595970519394169e-14 seconds.
Warning: Simulation tolerance relaxed to achieve convergence from 1.4595970519394169e-14 to 1.4596970519394169e-14 seconds.
Warning: Simulation tolerance relaxed to achieve convergence from 1.4598970519394169e-14 to 1.4599970519394169e-14 seconds.
Warning: Simulation tolerance relaxed to achieve convergence from 1.4601970519394168e-14 to 1.4602970519394168e-14 seconds.
Warning: Simulation tolerance relaxed to achieve convergence from 1.4602970519394168e-14 to 1.4603970519394168e-14 seconds.
Warning: Simulation tolerance relaxed to achieve convergence from 1.4603970519394168e-14 to 1.4604970519394168e-14 seconds.
Warning: Simulation tolerance relaxed to achieve convergence from 1.4607970519394167e-14 to 1.4608970519394167e-14 seconds.
Warning: Simulation tolerance relaxed to achieve convergence from 1.4608970519394167e-14 to 1.4609970519394167e-14 seconds.
Warning: Simulation tolerance relaxed to achieve convergence from 1.4611970519394166e-14 to 1.4612970519394166e-14 seconds.
Warning: Simulation tolerance relaxed to achieve convergence from 1.4616970519394166e-14 to 1.4617970519394165e-14 seconds.
Warning: Simulation tolerance relaxed to achieve convergence from 1.4624970519394164e-14 to 1.4625970519394164e-14 seconds.
Warning: Simulation tolerance relaxed to achieve convergence from 1.4634970519394162e-14 to 1.4635970519394162e-14 seconds.
Warning: Simulation tolerance relaxed to achieve convergence from 1.4637970519394162e-14 to 1.4638970519394162e-14 seconds.
Warning: Simulation tolerance relaxed to achieve convergence from 1.4638970519394162e-14 to 1.4639970519394161e-14 seconds.
Warning: Simulation tolerance relaxed to achieve convergence from 1.4660970519394158e-14 to 1.4661970519394157e-14 seconds.
Warning: Simulation tolerance relaxed to achieve convergence from 1.4663970519394157e-14 to 1.4664970519394157e-14 seconds.
Warning: Simulation tolerance relaxed to achieve convergence from 1.4668970519394156e-14 to 1.4669970519394156e-14 seconds.
Warning: Simulation tolerance relaxed to achieve convergence from 1.4669970519394156e-14 to 1.4670970519394156e-14 seconds.
Warning: Simulation tolerance relaxed to achieve convergence from 1.4672970519394155e-14 to 1.4673970519394155e-14 seconds.
Warning: Simulation tolerance relaxed to achieve convergence from 1.4683970519394153e-14 to 1.4684970519394153e-14 seconds.
Warning: Simulation tolerance relaxed to achieve convergence from 1.4690970519394152e-14 to 1.4691970519394152e-14 seconds.
Warning: Simulation tolerance relaxed to achieve convergence from 1.4693970519394152e-14 to 1.4694970519394151e-14 seconds.
Warning: Simulation tolerance relaxed to achieve convergence from 1.4694970519394151e-14 to 1.4695970519394151e-14 seconds.
Warning: Simulation tolerance relaxed to achieve convergence from 1.4695970519394151e-14 to 1.4696970519394151e-14 seconds.
Warning: Simulation tolerance relaxed to achieve convergence from 1.4696970519394151e-14 to 1.4697970519394151e-14 seconds.
Warning: Simulation tolerance relaxed to achieve convergence from 1.4702970519394150e-14 to 1.4703970519394150e-14 seconds.
Warning: Simulation tolerance relaxed to achieve convergence from 1.4706970519394149e-14 to 1.4707970519394149e-14 seconds.
Warning: Simulation tolerance relaxed to achieve convergence from 1.4707970519394149e-14 to 1.4708970519394149e-14 seconds.
Warning: Simulation tolerance relaxed to achieve convergence from 1.4708970519394149e-14 to 1.4709970519394149e-14 seconds.
Warning: Simulation tolerance relaxed to achieve convergence from 1.4709970519394149e-14 to 1.4710970519394149e-14 seconds.
Warning: Simulation tolerance relaxed to achieve convergence from 1.4710970519394149e-14 to 1.4711970519394148e-14 seconds.
Warning: Simulation tolerance relaxed to achieve convergence from 1.4713970519394148e-14 to 1.4714970519394148e-14 seconds.
Warning: Simulation tolerance relaxed to achieve convergence from 1.4715970519394148e-14 to 1.4716970519394147e-14 seconds.
Warning: Simulation tolerance relaxed to achieve convergence from 1.4720970519394147e-14 to 1.4721970519394147e-14 seconds.
Warning: Simulation tolerance relaxed to achieve convergence from 1.4724970519394146e-14 to 1.4725970519394146e-14 seconds.
Warning: Simulation tolerance relaxed to achieve convergence from 1.4725970519394146e-14 to 1.4726970519394146e-14 seconds.
Warning: Simulation tolerance relaxed to achieve convergence from 1.4726970519394146e-14 to 1.4727970519394145e-14 seconds.
Warning: Simulation tolerance relaxed to achieve convergence from 1.4729970519394145e-14 to 1.4730970519394145e-14 seconds.
Warning: Simulation tolerance relaxed to achieve convergence from 1.4730970519394145e-14 to 1.4731970519394145e-14 seconds.
Warning: Simulation tolerance relaxed to achieve convergence from 1.4732970519394145e-14 to 1.4733970519394144e-14 seconds.
Warning: Simulation tolerance relaxed to achieve convergence from 1.4735970519394144e-14 to 1.4736970519394144e-14 seconds.
Warning: Simulation tolerance relaxed to achieve convergence from 1.4740970519394143e-14 to 1.4741970519394143e-14 seconds.
Warning: Simulation tolerance relaxed to achieve convergence from 1.4741970519394143e-14 to 1.4742970519394143e-14 seconds.
Warning: Simulation tolerance relaxed to achieve convergence from 1.4742970519394143e-14 to 1.4743970519394143e-14 seconds.
Warning: Simulation tolerance relaxed to achieve convergence from 1.4745970519394142e-14 to 1.4746970519394142e-14 seconds.
Warning: Simulation tolerance relaxed to achieve convergence from 1.4746970519394142e-14 to 1.4747970519394142e-14 seconds.
Warning: Simulation tolerance relaxed to achieve convergence from 1.4749970519394141e-14 to 1.4750970519394141e-14 seconds.
Warning: Simulation tolerance relaxed to achieve convergence from 1.4750970519394141e-14 to 1.4751970519394141e-14 seconds.
Warning: Simulation tolerance relaxed to achieve convergence from 1.4751970519394141e-14 to 1.4752970519394141e-14 seconds.
Warning: Simulation tolerance relaxed to achieve convergence from 1.4752970519394141e-14 to 1.4753970519394141e-14 seconds.
Warning: Simulation tolerance relaxed to achieve convergence from 1.4758970519394140e-14 to 1.4759970519394140e-14 seconds.
Warning: Simulation tolerance relaxed to achieve convergence from 1.4761970519394139e-14 to 1.4762970519394139e-14 seconds.
Warning: Simulation tolerance relaxed to achieve convergence from 1.4770970519394138e-14 to 1.4771970519394137e-14 seconds.
Warning: Simulation tolerance relaxed to achieve convergence from 1.4772970519394137e-14 to 1.4773970519394137e-14 seconds.
Warning: Simulation tolerance relaxed to achieve convergence from 1.4773970519394137e-14 to 1.4774970519394137e-14 seconds.
Warning: Simulation tolerance relaxed to achieve convergence from 1.4774970519394137e-14 to 1.4775970519394137e-14 seconds.
Warning: Simulation tolerance relaxed to achieve convergence from 1.4779970519394136e-14 to 1.4780970519394136e-14 seconds.
Warning: Simulation tolerance relaxed to achieve convergence from 1.4780970519394136e-14 to 1.4781970519394136e-14 seconds.
Warning: Simulation tolerance relaxed to achieve convergence from 1.4781970519394136e-14 to 1.4782970519394135e-14 seconds.
Warning: Simulation tolerance relaxed to achieve convergence from 1.4785970519394135e-14 to 1.4786970519394135e-14 seconds.
Warning: Simulation tolerance relaxed to achieve convergence from 1.4786970519394135e-14 to 1.4787970519394135e-14 seconds.
Warning: Simulation tolerance relaxed to achieve convergence from 1.4787970519394135e-14 to 1.4788970519394134e-14 seconds.
Warning: Simulation tolerance relaxed to achieve convergence from 1.4788970519394134e-14 to 1.4789970519394134e-14 seconds.
Warning: Simulation tolerance relaxed to achieve convergence from 1.4795970519394133e-14 to 1.4796970519394133e-14 seconds.
Warning: Simulation tolerance relaxed to achieve convergence from 1.4796970519394133e-14 to 1.4797970519394133e-14 seconds.
Warning: Simulation tolerance relaxed to achieve convergence from 1.4797970519394133e-14 to 1.4798970519394133e-14 seconds.
Warning: Simulation tolerance relaxed to achieve convergence from 1.4798970519394133e-14 to 1.4799970519394132e-14 seconds.
Warning: Simulation tolerance relaxed to achieve convergence from 1.4801970519394132e-14 to 1.4802970519394132e-14 seconds.
Warning: Simulation tolerance relaxed to achieve convergence from 1.4807970519394131e-14 to 1.4808970519394131e-14 seconds.
Warning: Simulation tolerance relaxed to achieve convergence from 1.4810970519394130e-14 to 1.4811970519394130e-14 seconds.
Warning: Simulation tolerance relaxed to achieve convergence from 1.4811970519394130e-14 to 1.4812970519394130e-14 seconds.
Warning: Simulation tolerance relaxed to achieve convergence from 1.4814970519394130e-14 to 1.4815970519394130e-14 seconds.
Warning: Simulation tolerance relaxed to achieve convergence from 1.4815970519394130e-14 to 1.4816970519394129e-14 seconds.
Warning: Simulation tolerance relaxed to achieve convergence from 1.4816970519394129e-14 to 1.4817970519394129e-14 seconds.
Warning: Simulation tolerance relaxed to achieve convergence from 1.4820970519394129e-14 to 1.4821970519394128e-14 seconds.
[...]
Warning: Simulation tolerance relaxed to achieve convergence from 3.2230849705238031e-12 to 3.2230859705238032e-12 seconds.
Warning: Simulation tolerance relaxed to achieve convergence from 3.2230869705238034e-12 to 3.2230879705238036e-12 seconds.
Warning: Simulation tolerance relaxed to achieve convergence from 3.2230879705238036e-12 to 3.2230889705238038e-12 seconds.
Warning: Simulation tolerance relaxed to achieve convergence from 3.2230889705238038e-12 to 3.2230899705238039e-12 seconds.
Warning: Simulation tolerance relaxed to achieve convergence from 3.2230899705238039e-12 to 3.2230909705238041e-12 seconds.
Warning: Simulation tolerance relaxed to achieve convergence from 3.2230929705238045e-12 to 3.2230939705238046e-12 seconds.
Warning: Simulation tolerance relaxed to achieve convergence from 3.2230939705238046e-12 to 3.2230949705238048e-12 seconds.
Warning: Simulation tolerance relaxed to achieve convergence from 3.2230999705238049e-12 to 3.2231009705238050e-12 seconds.
Warning: Simulation tolerance relaxed to achieve convergence from 3.2231009705238050e-12 to 3.2231019705238052e-12 seconds.
Warning: Simulation tolerance relaxed to achieve convergence from 3.2231039705238052e-12 to 3.2231049705238053e-12 seconds.
Warning: Simulation tolerance relaxed to achieve convergence from 3.2231049705238053e-12 to 3.2231059705238055e-12 seconds.
Warning: Simulation tolerance relaxed to achieve convergence from 3.2231069705238057e-12 to 3.2231079705238058e-12 seconds.
Warning: Simulation tolerance relaxed to achieve convergence from 3.2231089705238060e-12 to 3.2231099705238062e-12 seconds.
Warning: Simulation tolerance relaxed to achieve convergence from 3.2231109705238064e-12 to 3.2231119705238065e-12 seconds.
Warning: Simulation tolerance relaxed to achieve convergence from 3.2231139705238065e-12 to 3.2231149705238067e-12 seconds.
Warning: Simulation tolerance relaxed to achieve convergence from 3.2231199705238067e-12 to 3.2231209705238069e-12 seconds.
Warning: Simulation tolerance relaxed to achieve convergence from 3.2231209705238069e-12 to 3.2231219705238071e-12 seconds.
Warning: Simulation tolerance relaxed to achieve convergence from 3.2231219705238071e-12 to 3.2231229705238072e-12 seconds.
Warning: Simulation tolerance relaxed to achieve convergence from 3.2231229705238072e-12 to 3.2231239705238074e-12 seconds.
Warning: Simulation tolerance relaxed to achieve convergence from 3.2231289705238075e-12 to 3.2231299705238076e-12 seconds.
Warning: Simulation tolerance relaxed to achieve convergence from 3.2231309705238078e-12 to 3.2231319705238080e-12 seconds.
Warning: Simulation tolerance relaxed to achieve convergence from 3.2231319705238080e-12 to 3.2231329705238082e-12 seconds.
Warning: Simulation tolerance relaxed to achieve convergence from 3.2231329705238082e-12 to 3.2231339705238083e-12 seconds.
Warning: Simulation tolerance relaxed to achieve convergence from 3.2231349705238085e-12 to 3.2231359705238087e-12 seconds.
Warning: Simulation tolerance relaxed to achieve convergence from 3.2231379705238090e-12 to 3.2231389705238092e-12 seconds.
Warning: Simulation tolerance relaxed to achieve convergence from 3.2231409705238091e-12 to 3.2231419705238093e-12 seconds.
Warning: Simulation tolerance relaxed to achieve convergence from 3.2231439705238097e-12 to 3.2231449705238098e-12 seconds.
Warning: Simulation tolerance relaxed to achieve convergence from 3.2231449705238098e-12 to 3.2231459705238100e-12 seconds.
Warning: Simulation tolerance relaxed to achieve convergence from 3.2231779705238103e-12 to 3.2231789705238105e-12 seconds.
Warning: Simulation tolerance relaxed to achieve convergence from 3.2231809705238104e-12 to 3.2231819705238106e-12 seconds.
Warning: Simulation tolerance relaxed to achieve convergence from 3.2231819705238106e-12 to 3.2231829705238108e-12 seconds.
Warning: Simulation tolerance relaxed to achieve convergence from 3.2231839705238109e-12 to 3.2231849705238111e-12 seconds.
Warning: Simulation tolerance relaxed to achieve convergence from 3.2231869705238111e-12 to 3.2231879705238112e-12 seconds.
Warning: Simulation tolerance relaxed to achieve convergence from 3.2231889705238114e-12 to 3.2231899705238116e-12 seconds.
Warning: Simulation tolerance relaxed to achieve convergence from 3.2231899705238116e-12 to 3.2231909705238118e-12 seconds.
Warning: Simulation tolerance relaxed to achieve convergence from 3.2231909705238118e-12 to 3.2231919705238119e-12 seconds.
Warning: Simulation tolerance relaxed to achieve convergence from 3.2231919705238119e-12 to 3.2231929705238121e-12 seconds.
Warning: Simulation tolerance relaxed to achieve convergence from 3.2231949705238124e-12 to 3.2231959705238126e-12 seconds.
Warning: Simulation tolerance relaxed to achieve convergence from 3.2231979705238126e-12 to 3.2231989705238127e-12 seconds.
Warning: Simulation tolerance relaxed to achieve convergence from 3.2232009705238131e-12 to 3.2232019705238133e-12 seconds.
Warning: Simulation tolerance relaxed to achieve convergence from 3.2232019705238133e-12 to 3.2232029705238134e-12 seconds.
Warning: Simulation tolerance relaxed to achieve convergence from 3.2232029705238134e-12 to 3.2232039705238136e-12 seconds.
Warning: Simulation tolerance relaxed to achieve convergence from 3.2232039705238136e-12 to 3.2232049705238138e-12 seconds.
Warning: Simulation tolerance relaxed to achieve convergence from 3.2232049705238138e-12 to 3.2232059705238140e-12 seconds.
Warning: Simulation tolerance relaxed to achieve convergence from 3.2232069705238141e-12 to 3.2232079705238143e-12 seconds.
Warning: Simulation tolerance relaxed to achieve convergence from 3.2232139705238145e-12 to 3.2232149705238147e-12 seconds.
Warning: Simulation tolerance relaxed to achieve convergence from 3.2232199705238152e-12 to 3.2232209705238153e-12 seconds.
Warning: Simulation tolerance relaxed to achieve convergence from 3.2232409705238156e-12 to 3.2232419705238158e-12 seconds.
Warning: Simulation tolerance relaxed to achieve convergence from 3.2232579705238161e-12 to 3.2232589705238163e-12 seconds.
Warning: Simulation tolerance relaxed to achieve convergence from 3.2232589705238163e-12 to 3.2232599705238164e-12 seconds.
Warning: Simulation tolerance relaxed to achieve convergence from 3.2232619705238168e-12 to 3.2232629705238170e-12 seconds.
Warning: Simulation tolerance relaxed to achieve convergence from 3.2232629705238170e-12 to 3.2232639705238171e-12 seconds.
Warning: Simulation tolerance relaxed to achieve convergence from 3.2232689705238172e-12 to 3.2232699705238174e-12 seconds.
Warning: Simulation tolerance relaxed to achieve convergence from 3.2232699705238174e-12 to 3.2232709705238175e-12 seconds.
Warning: Simulation tolerance relaxed to achieve convergence from 3.2232729705238175e-12 to 3.2232739705238177e-12 seconds.
Warning: Simulation tolerance relaxed to achieve convergence from 3.2232749705238178e-12 to 3.2232759705238180e-12 seconds.
Warning: Simulation tolerance relaxed to achieve convergence from 3.2232819705238178e-12 to 3.2232829705238180e-12 seconds.
Warning: Simulation tolerance relaxed to achieve convergence from 3.2232849705238180e-12 to 3.2232859705238181e-12 seconds.
Warning: Simulation tolerance relaxed to achieve convergence from 3.2232859705238181e-12 to 3.2232869705238183e-12 seconds.
Warning: Simulation tolerance relaxed to achieve convergence from 3.2232869705238183e-12 to 3.2232879705238185e-12 seconds.
Warning: Simulation tolerance relaxed to achieve convergence from 3.2232939705238183e-12 to 3.2232949705238185e-12 seconds.
Warning: Simulation tolerance relaxed to achieve convergence from 3.2232949705238185e-12 to 3.2232959705238186e-12 seconds.
Warning: Simulation tolerance relaxed to achieve convergence from 3.2232959705238186e-12 to 3.2232969705238188e-12 seconds.
Warning: Simulation tolerance relaxed to achieve convergence from 3.2233239705238203e-12 to 3.2233249705238204e-12 seconds.
Warning: Simulation tolerance relaxed to achieve convergence from 3.2233259705238206e-12 to 3.2233269705238208e-12 seconds.
Warning: Simulation tolerance relaxed to achieve convergence from 3.2233319705238213e-12 to 3.2233329705238214e-12 seconds.
Warning: Simulation tolerance relaxed to achieve convergence from 3.2233369705238217e-12 to 3.2233379705238219e-12 seconds.
Warning: Simulation tolerance relaxed to achieve convergence from 3.2233379705238219e-12 to 3.2233389705238221e-12 seconds.
Warning: Simulation tolerance relaxed to achieve convergence from 3.2233389705238221e-12 to 3.2233399705238222e-12 seconds.
Warning: Simulation tolerance relaxed to achieve convergence from 3.2233409705238224e-12 to 3.2233419705238226e-12 seconds.
Warning: Simulation tolerance relaxed to achieve convergence from 3.2233429705238228e-12 to 3.2233439705238229e-12 seconds.
Warning: Simulation tolerance relaxed to achieve convergence from 3.2233439705238229e-12 to 3.2233449705238231e-12 seconds.
Warning: Simulation tolerance relaxed to achieve convergence from 3.2233479705238232e-12 to 3.2233489705238234e-12 seconds.
Warning: Simulation tolerance relaxed to achieve convergence from 3.2233509705238237e-12 to 3.2233519705238239e-12 seconds.
Warning: Simulation tolerance relaxed to achieve convergence from 3.2233519705238239e-12 to 3.2233529705238241e-12 seconds.
Warning: Simulation tolerance relaxed to achieve convergence from 3.2233539705238243e-12 to 3.2233549705238244e-12 seconds.
Warning: Simulation tolerance relaxed to achieve convergence from 3.2233619705238252e-12 to 3.2233629705238254e-12 seconds.
Warning: Simulation tolerance relaxed to achieve convergence from 3.2233629705238254e-12 to 3.2233639705238256e-12 seconds.
Warning: Simulation tolerance relaxed to achieve convergence from 3.2233819705238259e-12 to 3.2233829705238261e-12 seconds.
Warning: Simulation tolerance relaxed to achieve convergence from 3.2233859705238262e-12 to 3.2233869705238263e-12 seconds.
Warning: Simulation tolerance relaxed to achieve convergence from 3.2233869705238263e-12 to 3.2233879705238265e-12 seconds.
Warning: Simulation tolerance relaxed to achieve convergence from 3.2233899705238269e-12 to 3.2233909705238270e-12 seconds.
Warning: Simulation tolerance relaxed to achieve convergence from 3.2233929705238274e-12 to 3.2233939705238276e-12 seconds.
Warning: Simulation tolerance relaxed to achieve convergence from 3.2233939705238276e-12 to 3.2233949705238277e-12 seconds.
Warning: Simulation tolerance relaxed to achieve convergence from 3.2233969705238277e-12 to 3.2233979705238279e-12 seconds.
Warning: Simulation tolerance relaxed to achieve convergence from 3.2233979705238279e-12 to 3.2233989705238280e-12 seconds.
Warning: Simulation tolerance relaxed to achieve convergence from 3.2233989705238280e-12 to 3.2233999705238282e-12 seconds.
Warning: Simulation tolerance relaxed to achieve convergence from 3.2233999705238282e-12 to 3.2234009705238284e-12 seconds.
Warning: Simulation tolerance relaxed to achieve convergence from 3.2234019705238285e-12 to 3.2234029705238287e-12 seconds.
Warning: Simulation tolerance relaxed to achieve convergence from 3.2234049705238291e-12 to 3.2234059705238292e-12 seconds.
Warning: Simulation tolerance relaxed to achieve convergence from 3.2234059705238292e-12 to 3.2234069705238294e-12 seconds.
Warning: Simulation tolerance relaxed to achieve convergence from 3.2234089705238298e-12 to 3.2234099705238299e-12 seconds.
Warning: Simulation tolerance relaxed to achieve convergence from 3.2234129705238300e-12 to 3.2234139705238302e-12 seconds.
Warning: Simulation tolerance relaxed to achieve convergence from 3.2234149705238304e-12 to 3.2234159705238306e-12 seconds.
Warning: Simulation tolerance relaxed to achieve convergence from 3.2234209705238306e-12 to 3.2234219705238308e-12 seconds.
Warning: Simulation tolerance relaxed to achieve convergence from 3.2234899705238309e-12 to 3.2234909705238311e-12 seconds.
Warning: Simulation tolerance relaxed to achieve convergence from 3.2234909705238311e-12 to 3.2234919705238312e-12 seconds.
Warning: Simulation tolerance relaxed to achieve convergence from 3.2234919705238312e-12 to 3.2234929705238314e-12 seconds.
Warning: Simulation tolerance relaxed to achieve convergence from 3.2234989705238320e-12 to 3.2234999705238322e-12 seconds.
Warning: Simulation tolerance relaxed to achieve convergence from 3.2234999705238322e-12 to 3.2235009705238324e-12 seconds.
Warning: Simulation tolerance relaxed to achieve convergence from 3.2235009705238324e-12 to 3.2235019705238326e-12 seconds.
Warning: Simulation tolerance relaxed to achieve convergence from 3.2235019705238326e-12 to 3.2235029705238327e-12 seconds.
Warning: Simulation tolerance relaxed to achieve convergence from 3.2235029705238327e-12 to 3.2235039705238329e-12 seconds.
Warning: Simulation tolerance relaxed to achieve convergence from 3.2235039705238329e-12 to 3.2235049705238331e-12 seconds.
Warning: Simulation tolerance relaxed to achieve convergence from 3.2235179705238333e-12 to 3.2235189705238335e-12 seconds.
Warning: Simulation tolerance relaxed to achieve convergence from 3.2235199705238337e-12 to 3.2235209705238338e-12 seconds.
Warning: Simulation tolerance relaxed to achieve convergence from 3.2235209705238338e-12 to 3.2235219705238340e-12 seconds.
Warning: Simulation tolerance relaxed to achieve convergence from 3.2235329705238343e-12 to 3.2235339705238345e-12 seconds.
Warning: Simulation tolerance relaxed to achieve convergence from 3.2235349705238346e-12 to 3.2235359705238348e-12 seconds.
Warning: Simulation tolerance relaxed to achieve convergence from 3.2235379705238352e-12 to 3.2235389705238353e-12 seconds.
Warning: Simulation tolerance relaxed to achieve convergence from 3.2235409705238353e-12 to 3.2235419705238354e-12 seconds.
Warning: Simulation tolerance relaxed to achieve convergence from 3.2235439705238354e-12 to 3.2235449705238356e-12 seconds.
Warning: Simulation tolerance relaxed to achieve convergence from 3.2235449705238356e-12 to 3.2235459705238357e-12 seconds.
Warning: Simulation tolerance relaxed to achieve convergence from 3.2235539705238359e-12 to 3.2235549705238361e-12 seconds.
Warning: Simulation tolerance relaxed to achieve convergence from 3.2235579705238362e-12 to 3.2235589705238364e-12 seconds.
Warning: Simulation tolerance relaxed to achieve convergence from 3.2235599705238366e-12 to 3.2235609705238367e-12 seconds.
Warning: Simulation tolerance relaxed to achieve convergence from 3.2235619705238369e-12 to 3.2235629705238371e-12 seconds.
Warning: Simulation tolerance relaxed to achieve convergence from 3.2235629705238371e-12 to 3.2235639705238372e-12 seconds.
Warning: Simulation tolerance relaxed to achieve convergence from 3.2235709705238376e-12 to 3.2235719705238378e-12 seconds.
Warning: Simulation tolerance relaxed to achieve convergence from 3.2235719705238378e-12 to 3.2235729705238380e-12 seconds.
Warning: Simulation tolerance relaxed to achieve convergence from 3.2235739705238382e-12 to 3.2235749705238383e-12 seconds.
Warning: Simulation tolerance relaxed to achieve convergence from 3.2235749705238383e-12 to 3.2235759705238385e-12 seconds.
Warning: Simulation tolerance relaxed to achieve convergence from 3.2235759705238385e-12 to 3.2235769705238387e-12 seconds.
Warning: Simulation tolerance relaxed to achieve convergence from 3.2235779705238389e-12 to 3.2235789705238390e-12 seconds.
Warning: Simulation tolerance relaxed to achieve convergence from 3.2235789705238390e-12 to 3.2235799705238392e-12 seconds.
Warning: Simulation tolerance relaxed to achieve convergence from 3.2235819705238392e-12 to 3.2235829705238393e-12 seconds.
Warning: Simulation tolerance relaxed to achieve convergence from 3.2235849705238397e-12 to 3.2235859705238398e-12 seconds.
Warning: Simulation tolerance relaxed to achieve convergence from 3.2235889705238404e-12 to 3.2235899705238405e-12 seconds.
Warning: Simulation tolerance relaxed to achieve convergence from 3.2235899705238405e-12 to 3.2235909705238407e-12 seconds.
Warning: Simulation tolerance relaxed to achieve convergence from 3.2235909705238407e-12 to 3.2235919705238409e-12 seconds.
Warning: Simulation tolerance relaxed to achieve convergence from 3.2235949705238410e-12 to 3.2235959705238412e-12 seconds.
Warning: Simulation tolerance relaxed to achieve convergence from 3.2235959705238412e-12 to 3.2235969705238413e-12 seconds.
Warning: Simulation tolerance relaxed to achieve convergence from 3.2236009705238416e-12 to 3.2236019705238418e-12 seconds.
Warning: Simulation tolerance relaxed to achieve convergence from 3.2236019705238418e-12 to 3.2236029705238420e-12 seconds.
Warning: Simulation tolerance relaxed to achieve convergence from 3.2236059705238421e-12 to 3.2236069705238423e-12 seconds.
Warning: Simulation tolerance relaxed to achieve convergence from 3.2236089705238422e-12 to 3.2236099705238424e-12 seconds.
Warning: Simulation tolerance relaxed to achieve convergence from 3.2236119705238423e-12 to 3.2236129705238425e-12 seconds.
Warning: Simulation tolerance relaxed to achieve convergence from 3.2236129705238425e-12 to 3.2236139705238427e-12 seconds.
Warning: Simulation tolerance relaxed to achieve convergence from 3.2236139705238427e-12 to 3.2236149705238429e-12 seconds.
Warning: Simulation tolerance relaxed to achieve convergence from 3.2236169705238428e-12 to 3.2236179705238430e-12 seconds.
Warning: Simulation tolerance relaxed to achieve convergence from 3.2236179705238430e-12 to 3.2236189705238431e-12 seconds.
Warning: Simulation tolerance relaxed to achieve convergence from 3.2236189705238431e-12 to 3.2236199705238433e-12 seconds.
Warning: Simulation tolerance relaxed to achieve convergence from 3.2236229705238434e-12 to 3.2236239705238436e-12 seconds.
Warning: Simulation tolerance relaxed to achieve convergence from 3.2236259705238435e-12 to 3.2236269705238437e-12 seconds.
Warning: Simulation tolerance relaxed to achieve convergence from 3.2236269705238437e-12 to 3.2236279705238439e-12 seconds.
Warning: Simulation tolerance relaxed to achieve convergence from 3.2236299705238438e-12 to 3.2236309705238440e-12 seconds.
Warning: Simulation tolerance relaxed to achieve convergence from 3.2236329705238440e-12 to 3.2236339705238441e-12 seconds.
Warning: Simulation tolerance relaxed to achieve convergence from 3.2236359705238441e-12 to 3.2236369705238442e-12 seconds.
Warning: Simulation tolerance relaxed to achieve convergence from 3.2236389705238442e-12 to 3.2236399705238444e-12 seconds.
Warning: Simulation tolerance relaxed to achieve convergence from 3.2236419705238443e-12 to 3.2236429705238445e-12 seconds.
Warning: Simulation tolerance relaxed to achieve convergence from 3.2236469705238448e-12 to 3.2236479705238449e-12 seconds.
Warning: Simulation tolerance relaxed to achieve convergence from 3.2236479705238449e-12 to 3.2236489705238451e-12 seconds.
Warning: Simulation tolerance relaxed to achieve convergence from 3.2236519705238452e-12 to 3.2236529705238454e-12 seconds.
Warning: Simulation tolerance relaxed to achieve convergence from 3.2236549705238453e-12 to 3.2236559705238455e-12 seconds.
Warning: Simulation tolerance relaxed to achieve convergence from 3.2236559705238455e-12 to 3.2236569705238457e-12 seconds.
Warning: Simulation tolerance relaxed to achieve convergence from 3.2236569705238457e-12 to 3.2236579705238459e-12 seconds.
Warning: Simulation tolerance relaxed to achieve convergence from 3.2236579705238459e-12 to 3.2236589705238460e-12 seconds.
Warning: Simulation tolerance relaxed to achieve convergence from 3.2236589705238460e-12 to 3.2236599705238462e-12 seconds.
Warning: Simulation tolerance relaxed to achieve convergence from 3.2236899705238462e-12 to 3.2236899705238462e-12 seconds.

Simulation stopped by user.
Total elapsed time: 30.956 seconds.

Files loaded:
D:\WORKSPACE\Docs\LTspice\1kWInterleavedBuckConverter.net
C:\Users\Mohamed Gueni\AppData\Local\LTspice\lib\cmp\standard.mos

