LTspice 24.0.12 for Windows
Circuit: * D:\WORKSPACE\Documents\LTspice\ZVS Buck.asc
Start Time: Thu Nov 28 13:34:01 2024
solver = Normal
Maximum thread count: 16
tnom = 27
temp = 27
method = modified trap
Direct Newton iteration for .op point succeeded.
